
Note: No compatibility mode selected!


Circuit: ** sch_path: /home/lxbtlr/dtilo/schemas/inv.sch

Error: unknown subckt: xm1 net1 a 0 0 sky130_fd_pr__nfet_01v8 l={l} w={w}*6 nf=1 ad={int((nf+1)/2)*w/nf*0.29} as={int((nf+2)/2)*w/nf*0.29} pd={2*int((nf+1)/2)*(w/nf+0.29)} ps={2*int((nf+2)/2)*(w/nf+0.29)} nrd={0.29/w} nrs={0.29/w} sa=0 sb=0 sd=0 mult=1 m=1
    Simulation interrupted due to error!

