
Note: No compatibility mode selected!


Circuit: ** sch_path: /home/lxbtlr/dtilo/schemas/inv_testbench.sch

Netlist line no. 0:
Undefined parameter [l]
Netlist line no. 0:
 Formula() error.
      |m=1; nf=1; mult=1; sd=0; sb=0; sa=0; l=l; w=w; ad=int((nf+1)/2)*w/nf*0.29; as=int((nf+2)/2)*w/nf*0.29; pd=2*int((nf+1)/2)*(w/nf+0.29); ps=2*int((nf+2)/2)*(w/nf+0.29); nrd=0.29/w; nrs=0.29/w;| : |l|=|l|
Netlist line no. 0:
Undefined parameter [l]
Netlist line no. 0:
Cannot compute substitute
Netlist line no. 0:
Undefined parameter [l]
Netlist line no. 0:
 Expression err: l*w*mult)))} toxm=4.148e-9 dtox=0.0 epsrox=3.9 xj=1.5e-7 ngate=1.0e+23 ndep=1.7e+17 nsd=1.0e+20 rsh=1.0 rshg=0.1 wint=2.1859e-8 lint=1.1932e-8 vth0={0.5190093+sky130_fd_pr__nfet_01v8__vth0_slope_spectre*(sky130_fd_pr__nfet_01v8__vth0_slope/sqrt(l*w*mult))} k1=0.54086565 k2=-0.026724591 k3=2.0 k3b=0.54 w0=0.0 dvt0=0.0 dvt1=0.53 dvt2=-0.032 dvt0w=-3.58 dvt1w=1670600.0 dvt2w=0.068 dsub=0.56 minv=0.0 voffl=5.8197729e-9 lpe0=1.0325e-7 lpeb=-7.082e-8 vbm=-3.0 dvtp0=0.0 dvtp1=0.0 phin=0.0 cdsc=0.0 cdscb=0.0 cdscd=0.0054 cit=0.0 voff={-0.1052686+sky130_fd_pr__nfet_01v8__voff_slope_spectre*(sky130_fd_pr__nfet_01v8__voff_slope/sqrt(l*w*mult))} nfactor=2.63331 eta0=0.08 etab=-0.07 u0=0.0318614 ua=-7.5866357e-10 ub=1.674192e-18 uc=4.9242e-11 ud=0.0 up=0.0 lp=1.0 eu=1.67 vtl=0.0 xn=3.0 vsat=80000.0 a0=1.334619 ags=0.4051693 a1=0.0 a2=0.42385546 b0=0.0 b1=2.1073424e-24 keta=-0.0087946 dwg=0.0 dwb=0.0 pclm=0.026316 pdiblc1=0.39 pdiblc2=0.0030734587 pdiblcb=-0.025 drout=0.56 pscbe1=754674160.0 pscbe2=1.0e-12 pvag=0.0 delta=0.01 fprout=0.0 pdits=0.0 pditsl=0.0 pditsd=0.0 lambda=0.0 lc=5.0e-9 rdsw=65.968 rsw=0.0 rdw=0.0 rdswmin=0.0 rdwmin=0.0 rswmin=0.0 prwb=0.0 prwg=0.021507 wr=1.0 alpha0=3.0e-8 alpha1=0.85 beta0=13.86 agidl=0.0 bgidl=2300000000.0 cgidl=0.5 egidl=0.8 toxref=4.148e-9 dlcig=0.0 aigbacc=1.0 bigbacc=0.0 cigbacc=0.0 nigbacc=0.0 aigbinv=0.35 bigbinv=0.03 cigbinv=0.006 eigbinv=1.1 nigbinv=0.0 aigc=0.43 bigc=0.054 cigc=0.075 aigsd=0.43 bigsd=0.054 cigsd=0.075 nigc=0.0 poxedge=1.0 pigcd=1.0 ntox=1.0 vfbsdoff=0.0 dlc=9.87908e-9 dwc=0.0 xpart=0.0 cgso=2.449068e-10 cgdo=2.449068e-10 cgbo=1.0e-13 cgdl=0.0 cgsl=0.0 clc=1.0e-7 cle=0.6 cf=1.4067e-12 ckappas=0.6 vfbcv=-1.0 acde=0.4 moin=6.9 noff=3.4037 voffcv=-0.17287 xrcrg1=12.0 xrcrg2=1.0 rbpb=50.0 rbpd=50.0 rbps=50.0 rbdb=50.0 rbsb=50.0 gbmin=1.0e-12 ef=0.84 noia=2.5e+42 noib=0.0 noic=0.0 em=41000000.0 ntnoi=1.0 lintnoi=-1.0e-7 af=1.0 kf=0.0 tnoia=15000000.0 tnoib=9900000.0 rnoia=0.94 rnoib=0.26 xl=0.0 xw=0.0 dmcg=0.0 dmdg=0.0 dmcgt=0.0 xgw=0.0 xgl=0.0 ngcon=1.0 jss=0.00275 jsws=6.0e-10 ijthsfwd=0.1 ijthsrev=0.1 bvs=11.7 xjbvs=1.0 pbs=0.729 cjs=0.001339749237 mjs=0.44 pbsws=0.2 cjsws=3.67354204e-11 mjsws=0.0009 pbswgs=0.95578 cjswgs=2.38232788e-10 mjswgs=0.8 tnom=30.0 kt1=-0.31303 kt2=-0.045313337 at=140000.0 ute=-1.8134 ua1=3.7602e-10 ub1=-6.3962e-19 uc1=1.5829713e-11 kt1l=0.0 prt=0.0 tvoff=0.0 njs=1.2928 tpb=0.0012287 tcj=0.000792 tpbsw=0.0 tcjsw=1.0e-5 tpbswg=0.0 tcjswg=0.0 xtis=2.0 tvfbsdoff=0.0 ll=0.0 wl=0.0 lln=1.0 wln=1.0 lw=0.0 ww=0.0 lwn=1.0 wwn=1.0 lwl=0.0 wwl=0.0 llc=0.0 wlc=0.0 lwc=0.0 wwc=0.0 lwlc=0.0 wwlc=0.0 saref=3.0e-6 sbref=3.0e-6 kvth0=9.8e-9 lkvth0=0.0 wkvth0=2.0e-7 pkvth0=0.0 llodvth=0.0 wlodvth=1.0 wlod=0.0 stk2=0.0 lodk2=1.0 lodeta0=1.0 ku0=-2.7e-8 lku0=0.0 wku0=0.0 pku0=0.0 tku0=0.0 llodku0=0.0 wlodku0=1.0 kvsat=0.2 steta0=0.0
Netlist line no. 0:
Cannot compute substitute
Netlist line no. 0:
Undefined parameter [l]
Netlist line no. 0:
 Expression err: l*w*mult)))} toxm=4.148e-9 dtox=0.0 epsrox=3.9 xj=1.5e-7 ngate=1.0e+23 ndep=1.7e+17 nsd=1.0e+20 rsh=1.0 rshg=0.1 wint=2.1859e-8 lint=1.1932e-8 vth0={0.5190093+sky130_fd_pr__nfet_01v8__vth0_slope_spectre*(sky130_fd_pr__nfet_01v8__vth0_slope/sqrt(l*w*mult))} k1=0.54086565 k2=-0.026724591 k3=2.0 k3b=0.54 w0=0.0 dvt0=0.0 dvt1=0.53 dvt2=-0.032 dvt0w=-3.58 dvt1w=1670600.0 dvt2w=0.068 dsub=0.56 minv=0.0 voffl=5.8197729e-9 lpe0=1.0325e-7 lpeb=-7.082e-8 vbm=-3.0 dvtp0=0.0 dvtp1=0.0 phin=0.0 cdsc=0.0 cdscb=0.0 cdscd=0.0054 cit=0.0 voff={-0.1052686+sky130_fd_pr__nfet_01v8__voff_slope_spectre*(sky130_fd_pr__nfet_01v8__voff_slope/sqrt(l*w*mult))} nfactor=2.63331 eta0=0.08 etab=-0.07 u0=0.0318614 ua=-7.5866357e-10 ub=1.674192e-18 uc=4.9242e-11 ud=0.0 up=0.0 lp=1.0 eu=1.67 vtl=0.0 xn=3.0 vsat=80000.0 a0=1.334619 ags=0.4051693 a1=0.0 a2=0.42385546 b0=0.0 b1=2.1073424e-24 keta=-0.0087946 dwg=0.0 dwb=0.0 pclm=0.026316 pdiblc1=0.39 pdiblc2=0.0030734587 pdiblcb=-0.025 drout=0.56 pscbe1=754674160.0 pscbe2=1.0e-12 pvag=0.0 delta=0.01 fprout=0.0 pdits=0.0 pditsl=0.0 pditsd=0.0 lambda=0.0 lc=5.0e-9 rdsw=65.968 rsw=0.0 rdw=0.0 rdswmin=0.0 rdwmin=0.0 rswmin=0.0 prwb=0.0 prwg=0.021507 wr=1.0 alpha0=3.0e-8 alpha1=0.85 beta0=13.86 agidl=0.0 bgidl=2300000000.0 cgidl=0.5 egidl=0.8 toxref=4.148e-9 dlcig=0.0 aigbacc=1.0 bigbacc=0.0 cigbacc=0.0 nigbacc=0.0 aigbinv=0.35 bigbinv=0.03 cigbinv=0.006 eigbinv=1.1 nigbinv=0.0 aigc=0.43 bigc=0.054 cigc=0.075 aigsd=0.43 bigsd=0.054 cigsd=0.075 nigc=0.0 poxedge=1.0 pigcd=1.0 ntox=1.0 vfbsdoff=0.0 dlc=9.87908e-9 dwc=0.0 xpart=0.0 cgso=2.449068e-10 cgdo=2.449068e-10 cgbo=1.0e-13 cgdl=0.0 cgsl=0.0 clc=1.0e-7 cle=0.6 cf=1.4067e-12 ckappas=0.6 vfbcv=-1.0 acde=0.4 moin=6.9 noff=3.4037 voffcv=-0.17287 xrcrg1=12.0 xrcrg2=1.0 rbpb=50.0 rbpd=50.0 rbps=50.0 rbdb=50.0 rbsb=50.0 gbmin=1.0e-12 ef=0.84 noia=2.5e+42 noib=0.0 noic=0.0 em=41000000.0 ntnoi=1.0 lintnoi=-1.0e-7 af=1.0 kf=0.0 tnoia=15000000.0 tnoib=9900000.0 rnoia=0.94 rnoib=0.26 xl=0.0 xw=0.0 dmcg=0.0 dmdg=0.0 dmcgt=0.0 xgw=0.0 xgl=0.0 ngcon=1.0 jss=0.00275 jsws=6.0e-10 ijthsfwd=0.1 ijthsrev=0.1 bvs=11.7 xjbvs=1.0 pbs=0.729 cjs=0.001339749237 mjs=0.44 pbsws=0.2 cjsws=3.67354204e-11 mjsws=0.0009 pbswgs=0.95578 cjswgs=2.38232788e-10 mjswgs=0.8 tnom=30.0 kt1=-0.31303 kt2=-0.045313337 at=140000.0 ute=-1.8134 ua1=3.7602e-10 ub1=-6.3962e-19 uc1=1.5829713e-11 kt1l=0.0 prt=0.0 tvoff=0.0 njs=1.2928 tpb=0.0012287 tcj=0.000792 tpbsw=0.0 tcjsw=1.0e-5 tpbswg=0.0 tcjswg=0.0 xtis=2.0 tvfbsdoff=0.0 ll=0.0 wl=0.0 lln=1.0 wln=1.0 lw=0.0 ww=0.0 lwn=1.0 wwn=1.0 lwl=0.0 wwl=0.0 llc=0.0 wlc=0.0 lwc=0.0 wwc=0.0 lwlc=0.0 wwlc=0.0 saref=3.0e-6 sbref=3.0e-6 kvth0=9.8e-9 lkvth0=0.0 wkvth0=2.0e-7 pkvth0=0.0 llodvth=0.0 wlodvth=1.0 wlod=0.0 stk2=0.0 lodk2=1.0 lodeta0=1.0 ku0=-2.7e-8 lku0=0.0 wku0=0.0 pku0=0.0 tku0=0.0 llodku0=0.0 wlodku0=1.0 kvsat=0.2 steta0=0.0
Netlist line no. 0:
Cannot compute substitute
Netlist line no. 0:
Undefined parameter [l]
Netlist line no. 0:
 Expression err: l*w*mult)))} toxm=4.148e-9 dtox=0.0 epsrox=3.9 xj=1.5e-7 ngate=1.0e+23 ndep=1.7e+17 nsd=1.0e+20 rsh=1.0 rshg=0.1 wint=2.1859e-8 lint=1.1932e-8 vth0={5.194724788e-01+sky130_fd_pr__nfet_01v8__vth0_slope_spectre*(sky130_fd_pr__nfet_01v8__vth0_slope1/sqrt(l*w*mult))} lvth0=-3.694376992e-09 wvth0=-4.629762938e-08 pvth0=3.692761884e-13 k1=5.415457968e-01 lk1=-5.424943089e-09 wk1=-6.798494173e-08 pk1=5.422571412e-13 k2=-2.716644654e-02 lk2=3.524299843e-09 wk2=4.416623650e-08 pk2=-3.522759090e-13 k3=2.0 k3b=0.54 w0=0.0 dvt0=0.0 dvt1=0.53 dvt2=-0.032 dvt0w=-3.58 dvt1w=1670600.0 dvt2w=0.068 dsub=0.56 minv=0.0 voffl=5.8197729e-9 lpe0=1.0325e-7 lpeb=-7.082e-8 vbm=-3.0 dvtp0=0.0 dvtp1=0.0 phin=0.0 cdsc=0.0 cdscb=0.0 cdscd=0.0054 cit=0.0 voff={-1.049994782e-01+sky130_fd_pr__nfet_01v8__voff_slope_spectre*(sky130_fd_pr__nfet_01v8__voff_slope/sqrt(l*w*mult))} lvoff=-2.146551938e-09 wvoff=-2.690041279e-08 pvoff=2.145613508e-13 nfactor=2.636374809e+00 lnfactor=-2.444533584e-08 wnfactor=-3.063469433e-07 pnfactor=2.443464883e-12 eta0=0.08 etab=-0.07 u0=3.183773360e-02 lu0=1.887663852e-10 wu0=2.365604853e-09 pu0=-1.886838603e-14 ua=-7.582789781e-10 lua=-3.067557542e-18 wua=-3.844237946e-17 pua=3.066216468e-22 ub=1.672091096e-18 lub=1.675709387e-26 wub=2.099985257e-25 pub=-1.674976801e-30 uc=4.877008480e-11 luc=3.764059839e-18 wuc=4.717088911e-17 puc=-3.762414268e-22 ud=0.0 up=0.0 lp=1.0 eu=1.67 vtl=0.0 xn=3.0 vsat=80000.0 a0=1.327488969e+00 la0=5.687009899e-08 wa0=7.126914150e-07 pa0=-5.684523652e-12 ags=4.061230713e-01 lags=-7.607409863e-09 wags=-9.533543630e-08 pags=7.604084055e-13 a1=0.0 a2=0.42385546 b0=0.0 b1=1.950656262e-24 lb1=1.249749944e-30 wb1=1.566176377e-29 pb1=-1.249203578e-34 keta=-8.288058846e-03 lketa=-4.040241132e-09 wketa=-5.063197041e-08 pketa=4.038474820e-13 dwg=0.0 dwb=0.0 pclm=6.800573404e-02 lpclm=-3.325229885e-07 wpclm=-4.167150812e-06 ppclm=3.323776161e-11 pdiblc1=0.39 pdiblc2=3.074732157e-03 lpdiblc2=-1.015726833e-11 wpdiblc2=-1.272900534e-10 ppdiblc2=1.015282777e-15 pdiblcb=-0.025 drout=0.56 pscbe1=7.580442487e+08 lpscbe1=-2.688028581e+01 wpscbe1=-3.368615365e+02 ppscbe1=2.686853428e-3 pscbe2=1.0e-12 pvag=0.0 delta=0.01 fprout=0.0 pdits=0.0 pditsl=0.0 pditsd=0.0 lambda=0.0 lc=5.0e-9 rdsw=65.968 rsw=0.0 rdw=0.0 rdswmin=0.0 rdwmin=0.0 rswmin=0.0 prwb=0.0 prwg=0.021507 wr=1.0 alpha0=3.0e-8 alpha1=0.85 beta0=13.86 agidl=0.0 bgidl=2300000000.0 cgidl=0.5 egidl=0.8 toxref=4.148e-9 dlcig=0.0 aigbacc=1.0 bigbacc=0.0 cigbacc=0.0 nigbacc=0.0 aigbinv=0.35 bigbinv=0.03 cigbinv=0.006 eigbinv=1.1 nigbinv=0.0 aigc=0.43 bigc=0.054 cigc=0.075 aigsd=0.43 bigsd=0.054 cigsd=0.075 nigc=0.0 poxedge=1.0 pigcd=1.0 ntox=1.0 vfbsdoff=0.0 dlc=9.87908e-9 dwc=0.0 xpart=0.0 cgso=2.449068e-10 cgdo=2.449068e-10 cgbo=1.0e-13 cgdl=0.0 cgsl=0.0 clc=1.0e-7 cle=0.6 cf=1.4067e-12 ckappas=0.6 vfbcv=-1.0 acde=0.4 moin=6.9 noff=3.4037 voffcv=-0.17287 xrcrg1=12.0 xrcrg2=1.0 rbpb=50.0 rbpd=50.0 rbps=50.0 rbdb=50.0 rbsb=50.0 gbmin=1.0e-12 ef=0.84 noia=2.5e+42 noib=0.0 noic=0.0 em=41000000.0 ntnoi=1.0 lintnoi=-1.0e-7 af=1.0 kf=0.0 tnoia=15000000.0 tnoib=9900000.0 rnoia=0.94 rnoib=0.26 xl=0.0 xw=0.0 dmcg=0.0 dmdg=0.0 dmcgt=0.0 xgw=0.0 xgl=0.0 ngcon=1.0 jss=0.00275 jsws=6.0e-10 ijthsfwd=0.1 ijthsrev=0.1 bvs=11.7 xjbvs=1.0 pbs=0.729 cjs=0.001339749237 mjs=0.44 pbsws=0.2 cjsws=3.67354204e-11 mjsws=0.0009 pbswgs=0.95578 cjswgs=2.38232788e-10 mjswgs=0.8 tnom=30.0 kt1=-3.131868837e-01 lkt1=1.251326022e-09 wkt1=1.568151505e-08 pkt1=-1.250778967e-13 kt2=-4.539671736e-02 lkt2=6.650530936e-10 wkt2=8.334390809e-09 pkt2=-6.647623457e-14 at=140000.0 ute=-1.816359229e+00 lute=2.360321122e-08 wute=2.957935066e-07 pute=-2.359289237e-12 ua1=3.613755352e-10 lua1=1.168062433e-16 wua1=1.463806258e-15 pua1=-1.167551779e-20 ub1=-6.204482125e-19 lub1=-1.529167842e-25 wub1=-1.916340595e-24 pub1=1.528499321e-29 uc1=1.690988400e-11 luc1=-8.615590785e-18 wuc1=-1.079698769e-16 puc1=8.611824221e-22 kt1l=0.0 prt=0.0 tvoff=0.0 njs=1.2928 tpb=0.0012287 tcj=0.000792 tpbsw=0.0 tcjsw=1.0e-5 tpbswg=0.0 tcjswg=0.0 xtis=2.0 tvfbsdoff=0.0 ll=0.0 wl=0.0 lln=1.0 wln=1.0 lw=0.0 ww=0.0 lwn=1.0 wwn=1.0 lwl=0.0 wwl=0.0 llc=0.0 wlc=0.0 lwc=0.0 wwc=0.0 lwlc=0.0 wwlc=0.0 saref=3.0e-6 sbref=3.0e-6 kvth0=9.8e-9 lkvth0=0.0 wkvth0=2.0e-7 pkvth0=0.0 llodvth=0.0 wlodvth=1.0 wlod=0.0 stk2=0.0 lodk2=1.0 lodeta0=1.0 ku0=-2.7e-8 lku0=0.0 wku0=0.0 pku0=0.0 tku0=0.0 llodku0=0.0 wlodku0=1.0 kvsat=0.2 steta0=0.0
Netlist line no. 0:
Cannot compute substitute
Netlist line no. 0:
Undefined parameter [l]
Netlist line no. 0:
 Expression err: l*w*mult)))} toxm=4.148e-9 dtox=0.0 epsrox=3.9 xj=1.5e-7 ngate=1.0e+23 ndep=1.7e+17 nsd=1.0e+20 rsh=1.0 rshg=0.1 wint=2.1859e-8 lint=1.1932e-8 vth0={5.124282658e-01+sky130_fd_pr__nfet_01v8__vth0_slope_spectre*(sky130_fd_pr__nfet_01v8__vth0_slope/sqrt(l*w*mult))} lvth0=2.431437174e-08 wvth0=4.256783852e-08 pvth0=1.593500235e-14 k1=5.304574419e-01 lk1=3.866386370e-08 wk1=1.369158390e-07 pk1=-2.724562297e-13 k2=-2.007149225e-02 lk2=-2.468620333e-08 wk2=-7.809516520e-08 pk2=1.338520518e-13 k3=2.0 k3b=0.54 w0=0.0 dvt0=0.0 dvt1=0.53 dvt2=-0.032 dvt0w=-3.58 dvt1w=1670600.0 dvt2w=0.068 dsub=5.378281302e-01 ldsub=8.815836977e-08 wdsub=2.216217672e-06 pdsub=-8.811982869e-12 minv=0.0 voffl=5.8197729e-9 lpe0=1.0325e-7 lpeb=-7.082e-8 vbm=-3.0 dvtp0=0.0 dvtp1=0.0 phin=0.0 cdsc=0.0 cdscb=0.0 cdscd=0.0054 cit=0.0 voff={-1.094030449e-01+sky130_fd_pr__nfet_01v8__voff_slope_spectre*(sky130_fd_pr__nfet_01v8__voff_slope/sqrt(l*w*mult))} lvoff=1.536262827e-08 wvoff=5.578493138e-08 pvoff=-1.142068228e-13 nfactor=2.592450448e+00 lnfactor=1.502038973e-07 wnfactor=1.313313239e-08 pnfactor=1.173168653e-12 eta0=7.412445450e-02 leta0=2.336196799e-08 weta0=5.872976830e-07 peta0=-2.335175460e-12 etab=-6.486356790e-02 letab=-2.042315258e-08 wetab=-5.134186554e-07 petab=2.041422399e-12 u0=3.209879152e-02 lu0=-8.492353878e-10 wu0=7.707681347e-09 pu0=-4.010920869e-14 ua=-7.772766349e-10 lua=7.246970951e-17 wua=1.349633081e-15 pua=-5.212555164e-21 ub=1.715448650e-18 lub=-1.556384353e-25 wub=-1.333196930e-24 pub=4.460978208e-30 uc=5.877915793e-11 luc=-3.603337616e-17 wuc=-3.264462550e-16 puc=1.109311150e-21 ud=0.0 up=0.0 lp=1.0 eu=1.67 vtl=0.0 xn=3.0 vsat=80000.0 a0=1.442796403e+00 la0=-4.016079406e-07 wa0=-1.342075208e-06 pa0=2.485507888e-12 ags=4.028351540e-01 lags=5.465796758e-09 wags=-1.033597319e-06 pags=4.491065254e-12 a1=0.0 a2=0.42385546 b0=0.0 b1=4.502912266e-24 lb1=-8.898367034e-30 wb1=-3.132352754e-29 pb1=6.189955043e-35 keta=-1.640202815e-02 lketa=2.822200432e-08 wketa=8.756343093e-08 pketa=-1.456362283e-13 dwg=0.0 dwb=0.0 pclm=-6.131369147e-01 lpclm=2.375792818e-06 wpclm=8.540188246e-06 ppclm=-1.728834668e-11 pdiblc1=0.39 pdiblc2=3.181248537e-03 lpdiblc2=-4.336808822e-10 wpdiblc2=-1.246582526e-08 ppdiblc2=5.007497679e-14 pdiblcb=-0.025 drout=0.56 pscbe1=7.031489705e+08 lpscbe1=1.913908060e+02 wpscbe1=6.737230730e+02 ppscbe1=-1.331368419e-3 pscbe2=1.0e-12 pvag=0.0 delta=0.01 fprout=0.0 pdits=0.0 pditsl=0.0 pditsd=0.0 lambda=0.0 lc=5.0e-9 rdsw=65.968 rsw=0.0 rdw=0.0 rdswmin=0.0 rdwmin=0.0 rswmin=0.0 prwb=0.0 prwg=0.021507 wr=1.0 alpha0=3.0e-8 alpha1=0.85 beta0=13.86 agidl=0.0 bgidl=2300000000.0 cgidl=0.5 egidl=0.8 toxref=4.148e-9 dlcig=0.0 aigbacc=1.0 bigbacc=0.0 cigbacc=0.0 nigbacc=0.0 aigbinv=0.35 bigbinv=0.03 cigbinv=0.006 eigbinv=1.1 nigbinv=0.0 aigc=0.43 bigc=0.054 cigc=0.075 aigsd=0.43 bigsd=0.054 cigsd=0.075 nigc=0.0 poxedge=1.0 pigcd=1.0 ntox=1.0 vfbsdoff=0.0 dlc=9.87908e-9 dwc=0.0 xpart=0.0 cgso=2.449068e-10 cgdo=2.449068e-10 cgbo=1.0e-13 cgdl=0.0 cgsl=0.0 clc=1.0e-7 cle=0.6 cf=1.4067e-12 ckappas=0.6 vfbcv=-1.0 acde=0.4 moin=6.9 noff=3.4037 voffcv=-0.17287 xrcrg1=12.0 xrcrg2=1.0 rbpb=50.0 rbpd=50.0 rbps=50.0 rbdb=50.0 rbsb=50.0 gbmin=1.0e-12 ef=0.84 noia=2.5e+42 noib=0.0 noic=0.0 em=41000000.0 ntnoi=1.0 lintnoi=-1.0e-7 af=1.0 kf=0.0 tnoia=15000000.0 tnoib=9900000.0 rnoia=0.94 rnoib=0.26 xl=0.0 xw=0.0 dmcg=0.0 dmdg=0.0 dmcgt=0.0 xgw=0.0 xgl=0.0 ngcon=1.0 jss=0.00275 jsws=6.0e-10 ijthsfwd=0.1 ijthsrev=0.1 bvs=11.7 xjbvs=1.0 pbs=0.729 cjs=0.001339749237 mjs=0.44 pbsws=0.2 cjsws=3.67354204e-11 mjsws=0.0009 pbswgs=0.95578 cjswgs=2.38232788e-10 mjswgs=0.8 tnom=30.0 kt1=-3.112847401e-01 lkt1=-6.311855597e-09 wkt1=3.394151730e-08 pkt1=-1.976821490e-13 kt2=-4.403955904e-02 lkt2=-4.731192969e-09 wkt2=-1.656662876e-08 pkt2=3.253360577e-14 at=1.381479098e+05 lat=7.364162488e-03 wat=1.851280495e-01 pat=-7.360943023e-7 ute=-1.757935204e+00 lute=-2.086986568e-07 wute=-1.613263360e-06 pute=5.231380497e-12 ua1=6.225548039e-10 lua1=-9.216780498e-16 wua1=-5.190223011e-15 pua1=1.478180753e-20 ub1=-9.463016587e-19 lub1=1.142720834e-24 wub1=5.188563162e-24 pub1=-1.296507040e-29 uc1=-2.357426518e-13 luc1=5.955775258e-17 wuc1=1.710346184e-16 puc1=-2.481773957e-22 kt1l=0.0 prt=0.0 tvoff=0.0 njs=1.2928 tpb=0.0012287 tcj=0.000792 tpbsw=0.0 tcjsw=1.0e-5 tpbswg=0.0 tcjswg=0.0 xtis=2.0 tvfbsdoff=0.0 ll=0.0 wl=0.0 lln=1.0 wln=1.0 lw=0.0 ww=0.0 lwn=1.0 wwn=1.0 lwl=0.0 wwl=0.0 llc=0.0 wlc=0.0 lwc=0.0 wwc=0.0 lwlc=0.0 wwlc=0.0 saref=3.0e-6 sbref=3.0e-6 kvth0=9.8e-9 lkvth0=0.0 wkvth0=2.0e-7 pkvth0=0.0 llodvth=0.0 wlodvth=1.0 wlod=0.0 stk2=0.0 lodk2=1.0 lodeta0=1.0 ku0=-2.7e-8 lku0=0.0 wku0=0.0 pku0=0.0 tku0=0.0 llodku0=0.0 wlodku0=1.0 kvsat=0.2 steta0=0.0
Netlist line no. 0:
Cannot compute substitute
Netlist line no. 0:
Undefined parameter [l]
Netlist line no. 0:
 Expression err: l*w*mult)))} toxm=4.148e-9 dtox=0.0 epsrox=3.9 xj=1.5e-7 ngate=1.0e+23 ndep=1.7e+17 nsd=1.0e+20 rsh=1.0 rshg=0.1 wint=2.1859e-8 lint=1.1932e-8 vth0={5.265214792e-01+sky130_fd_pr__nfet_01v8__vth0_slope_spectre*(sky130_fd_pr__nfet_01v8__vth0_slope/sqrt(l*w*mult))} lvth0=-3.535734467e-09 wvth0=-1.282118392e-07 pvth0=3.534188715e-13 k1=5.524870904e-01 lk1=-4.869717742e-09 wk1=-2.472758915e-07 pk1=4.867588799e-13 k2=-3.352973142e-02 lk2=1.909107599e-09 wk2=8.620493828e-08 pk2=-1.908272975e-13 k3=2.0 k3b=0.54 w0=0.0 dvt0=0.0 dvt1=0.53 dvt2=-0.032 dvt0w=-3.58 dvt1w=1670600.0 dvt2w=0.068 dsub=5.824396194e-01 wdsub=-2.242980920e-6 minv=0.0 voffl=5.8197729e-9 lpe0=1.0325e-7 lpeb=-7.082e-8 vbm=-3.0 dvtp0=0.0 dvtp1=0.0 phin=0.0 cdsc=0.0 cdscb=0.0 cdscd=0.0054 cit=0.0 voff={-1.029956789e-01+sky130_fd_pr__nfet_01v8__voff_slope_spectre*(sky130_fd_pr__nfet_01v8__voff_slope/sqrt(l*w*mult))} lvoff=2.700801503e-09 wvoff=1.346030157e-07 pvoff=-2.699620766e-13 nfactor=2.660003227e+00 lnfactor=1.671041853e-08 wnfactor=1.452042175e-06 pnfactor=-1.670311306e-12 eta0=8.609480828e-02 leta0=-2.930790459e-10 weta0=-6.092143748e-07 peta0=2.929509176e-14 etab=-7.518471959e-02 letab=-2.715316148e-11 wetab=5.182452938e-07 petab=2.714129066e-15 u0=3.138075868e-02 lu0=5.696951655e-10 wu0=1.622703524e-08 pu0=-5.694461062e-14 ua=-7.784147269e-10 lua=7.471873419e-17 wua=2.491281076e-15 pua=-7.468606865e-21 ub=1.671533075e-18 lub=-6.885528766e-26 wub=-2.558588474e-24 pub=6.882518551e-30 uc=3.956352106e-11 luc=1.939335609e-18 wuc=3.330022481e-16 puc=-1.938487771e-22 ud=0.0 up=0.0 lp=1.0 eu=1.67 vtl=0.0 xn=3.0 vsat=8.148217881e+04 lvsat=-2.928986896e-03 wvsat=-1.481530827e-01 pvsat=2.927706402e-7 a0=1.229249642e+00 la0=2.038950021e-08 wa0=9.470215552e-07 pa0=-2.038058633e-12 ags=4.282285224e-01 lags=-4.471495281e-08 wags=-1.022704940e-06 pags=4.469540432e-12 a1=0.0 a2=0.42385546 b0=0.0 b1=0.0 keta=-6.862460185e-03 lketa=9.370520639e-09 wketa=4.878426501e-07 pketa=-9.366424034e-13 dwg=0.0 dwb=0.0 pclm=5.768770306e-01 lpclm=2.416342047e-08 wpclm=1.013853514e-06 ppclm=-2.415285670e-12 pdiblc1=4.131572185e-01 lpdiblc1=-4.576181312e-08 wpdiblc1=-2.314709462e-06 ppdiblc1=4.574180697e-12 pdiblc2=2.903299932e-03 lpdiblc2=1.155833635e-10 wpdiblc2=1.872041904e-08 ppdiblc2=-1.155328327e-14 pdiblcb=-2.318864550e-02 lpdiblcb=-3.579482830e-09 wpdiblcb=-1.810562609e-07 ppdiblcb=3.577917952e-13 drout=5.380958797e-01 ldrout=4.328552063e-08 wdrout=2.189454424e-06 pdrout=-4.326659707e-12 pscbe1=7.606510411e+08 lpscbe1=7.775889417e+01 wpscbe1=3.933175629e+03 ppscbe1=-7.772489954e-3 pscbe2=1.0e-12 pvag=0.0 delta=0.01 fprout=0.0 pdits=0.0 pditsl=0.0 pditsd=0.0 lambda=0.0 lc=5.0e-9 rdsw=65.968 rsw=0.0 rdw=0.0 rdswmin=0.0 rdwmin=0.0 rswmin=0.0 prwb=0.0 prwg=0.021507 wr=1.0 alpha0=2.205658464e-07 lalpha0=-3.765840295e-13 walpha0=-1.904825348e-11 palpha0=3.764193945e-17 alpha1=8.524824670e-01 lalpha1=-4.905692338e-09 walpha1=-2.481381680e-07 palpha1=4.903547668e-13 beta0=1.406239407e+01 lbeta0=-3.999582106e-07 wbeta0=-2.023055887e-05 pbeta0=3.997833569e-11 agidl=0.0 bgidl=2300000000.0 cgidl=0.5 egidl=0.8 toxref=4.148e-9 dlcig=0.0 aigbacc=1.0 bigbacc=0.0 cigbacc=0.0 nigbacc=0.0 aigbinv=0.35 bigbinv=0.03 cigbinv=0.006 eigbinv=1.1 nigbinv=0.0 aigc=0.43 bigc=0.054 cigc=0.075 aigsd=0.43 bigsd=0.054 cigsd=0.075 nigc=0.0 poxedge=1.0 pigcd=1.0 ntox=1.0 vfbsdoff=0.0 dlc=9.87908e-9 dwc=0.0 xpart=0.0 cgso=2.449068e-10 cgdo=2.449068e-10 cgbo=1.0e-13 cgdl=0.0 cgsl=0.0 clc=1.0e-7 cle=0.6 cf=1.4067e-12 ckappas=0.6 vfbcv=-1.0 acde=0.4 moin=6.9 noff=3.4037 voffcv=-0.17287 xrcrg1=12.0 xrcrg2=1.0 rbpb=50.0 rbpd=50.0 rbps=50.0 rbdb=50.0 rbsb=50.0 gbmin=1.0e-12 ef=0.84 noia=2.5e+42 noib=0.0 noic=0.0 em=41000000.0 ntnoi=1.0 lintnoi=-1.0e-7 af=1.0 kf=0.0 tnoia=15000000.0 tnoib=9900000.0 rnoia=0.94 rnoib=0.26 xl=0.0 xw=0.0 dmcg=0.0 dmdg=0.0 dmcgt=0.0 xgw=0.0 xgl=0.0 ngcon=1.0 jss=0.00275 jsws=6.0e-10 ijthsfwd=0.1 ijthsrev=0.1 bvs=11.7 xjbvs=1.0 pbs=0.729 cjs=0.001339749237 mjs=0.44 pbsws=0.2 cjsws=3.67354204e-11 mjsws=0.0009 pbswgs=0.95578 cjswgs=2.38232788e-10 mjswgs=0.8 tnom=30.0 kt1=-3.107339048e-01 lkt1=-7.400381177e-09 wkt1=-4.404168957e-07 pkt1=7.397145879e-13 kt2=-4.496893626e-02 lkt2=-2.894617183e-09 wkt2=-1.465179912e-07 pkt2=2.893351714e-13 at=1.381088459e+05 lat=7.441358137e-03 wat=1.890327353e-01 pat=-7.438104924e-7 ute=-1.803083395e+00 lute=-1.194796923e-07 wute=-5.009469552e-06 pute=1.194274582e-11 ua1=2.816514627e-10 lua1=-2.480066846e-16 wua1=-1.025466117e-14 pua1=2.478982610e-20 ub1=-4.339323422e-19 lub1=1.302093822e-25 wub1=5.213953787e-24 pub1=-1.301524572e-29 uc1=3.132149136e-11 luc1=-2.803633615e-18 wuc1=-9.636508894e-17 puc1=2.802407923e-22 kt1l=0.0 prt=0.0 tvoff=0.0 njs=1.2928 tpb=0.0012287 tcj=0.000792 tpbsw=0.0 tcjsw=1.0e-5 tpbswg=0.0 tcjswg=0.0 xtis=2.0 tvfbsdoff=0.0 ll=0.0 wl=0.0 lln=1.0 wln=1.0 lw=0.0 ww=0.0 lwn=1.0 wwn=1.0 lwl=0.0 wwl=0.0 llc=0.0 wlc=0.0 lwc=0.0 wwc=0.0 lwlc=0.0 wwlc=0.0 saref=2.75e-6 sbref=2.74e-6 kvth0=9.8e-9 lkvth0=0.0 wkvth0=2.0e-7 pkvth0=0.0 llodvth=0.0 wlodvth=1.0 wlod=0.0 stk2=0.0 lodk2=1.0 lodeta0=1.0 ku0=-2.7e-8 lku0=0.0 wku0=0.0 pku0=0.0 tku0=0.0 llodku0=0.0 wlodku0=1.0 kvsat=0.2 steta0=0.0
Netlist line no. 0:
Cannot compute substitute
Netlist line no. 0:
Undefined parameter [l]
Netlist line no. 0:
 Expression err: l*w*mult)))} toxm=4.148e-9 dtox=0.0 epsrox=3.9 xj=1.5e-7 ngate=1.0e+23 ndep=1.7e+17 nsd=1.0e+20 rsh=1.0 rshg=0.1 wint=2.1859e-8 lint=1.1932e-8 vth0={5.173374665e-01+sky130_fd_pr__nfet_01v8__vth0_slope_spectre*(sky130_fd_pr__nfet_01v8__vth0_slope/sqrt(l*w*mult))} lvth0=5.429110907e-09 wvth0=1.451912490e-07 pvth0=8.654027462e-14 k1=5.406566785e-01 lk1=6.678373256e-09 wk1=9.474366135e-07 pk1=-6.794430059e-13 k2=-2.740120282e-02 lk2=-4.073169797e-09 wk2=-3.944736425e-07 pk2=2.783803696e-13 k3=2.0 k3b=0.54 w0=0.0 dvt0=0.0 dvt1=0.53 dvt2=-0.032 dvt0w=-3.58 dvt1w=1670600.0 dvt2w=0.068 dsub=8.991414420e-01 ldsub=-3.091440504e-07 wdsub=-5.343647045e-06 pdsub=3.026671828e-12 minv=0.0 voffl=5.8197729e-9 lpe0=1.0325e-7 lpeb=-7.082e-8 vbm=-3.0 dvtp0=0.0 dvtp1=0.0 phin=0.0 cdsc=0.0 cdscb=0.0 cdscd=0.0054 cit=0.0 voff={-1.009256027e-01+sky130_fd_pr__nfet_01v8__voff_slope_spectre*(sky130_fd_pr__nfet_01v8__voff_slope/sqrt(l*w*mult))} lvoff=6.801256000e-10 wvoff=-4.674916482e-08 pvoff=-9.293768455e-14 nfactor=2.605596465e+00 lnfactor=6.981881780e-08 wnfactor=-8.349209003e-07 pnfactor=5.620756817e-13 eta0=2.018846564e-01 leta0=-1.133197182e-07 weta0=-4.615884383e-06 peta0=3.940349927e-12 etab=-1.463451305e-01 letab=6.943508571e-08 wetab=1.015844159e-06 petab=-4.830100369e-13 u0=3.352698870e-02 lu0=-1.525317221e-09 wu0=-3.802867750e-08 pu0=-3.983656204e-15 ua=-5.371888159e-10 lua=-1.607505616e-16 wua=-5.221570888e-15 pua=6.018559916e-23 ub=1.475966341e-18 lub=1.220444419e-25 wub=5.223075908e-24 pub=-7.134441927e-31 uc=1.095109860e-11 luc=2.986895122e-17 wuc=2.023582373e-16 puc=-6.632245490e-23 ud=0.0 up=0.0 lp=1.0 eu=1.67 vtl=0.0 xn=3.0 vsat=7.943645684e+04 lvsat=-9.320840406e-04 wvsat=5.632967890e-02 pvsat=9.316765521e-8 a0=1.291158855e+00 la0=-4.004231074e-08 wa0=-4.167785480e-06 pa0=2.954688648e-12 ags=2.381856961e-01 lags=1.407926915e-07 wags=2.198736236e-06 pags=1.324975729e-12 a1=0.0 a2=0.42385546 b0=0.0 b1=0.0 keta=3.561401696e-03 lketa=-8.045862015e-10 wketa=-7.306170793e-07 pketa=2.527400029e-13 dwg=0.0 dwb=0.0 pclm=6.404786183e-01 lpclm=-3.792037900e-08 wpclm=-2.690702931e-06 ppclm=1.200865240e-12 pdiblc1=3.871350928e-01 lpdiblc1=-2.036067943e-08 wpdiblc1=2.863654728e-07 ppdiblc1=2.035177815e-12 pdiblc2=1.217587306e-03 lpdiblc2=1.761068143e-09 wpdiblc2=2.331725074e-08 ppdiblc2=-1.604041618e-14 pdiblcb=-2.862270899e-02 lpdiblcb=1.724902169e-09 wpdiblcb=3.621125218e-07 ppdiblcb=-1.724148077e-13 drout=5.994456506e-01 ldrout=-1.660019935e-08 wdrout=-3.942840578e-06 pdrout=1.659294207e-12 pscbe1=8.616614397e+08 lpscbe1=-2.084099226e+01 wpscbe1=-6.163448258e+03 ppscbe1=2.083188100e-3 pscbe2=1.0e-12 pvag=0.0 delta=0.01 fprout=0.0 pdits=0.0 pditsl=0.0 pditsd=0.0 lambda=0.0 lc=5.0e-9 rdsw=65.968 rsw=0.0 rdw=0.0 rdswmin=0.0 rdwmin=0.0 rswmin=0.0 prwb=0.0 prwg=0.021507 wr=1.0 alpha0=7.410386908e-08 lalpha0=-2.336172208e-13 walpha0=-4.408458775e-12 palpha0=2.335150880e-17 alpha1=8.450350661e-01 lalpha1=2.363983782e-09 walpha1=4.962763360e-07 palpha1=-2.362950295e-13 beta0=1.380708182e+01 lbeta0=-1.507387305e-07 wbeta0=5.289504551e-06 pbeta0=1.506728306e-11 agidl=0.0 bgidl=2300000000.0 cgidl=0.5 egidl=0.8 toxref=4.148e-9 dlcig=0.0 aigbacc=1.0 bigbacc=0.0 cigbacc=0.0 nigbacc=0.0 aigbinv=0.35 bigbinv=0.03 cigbinv=0.006 eigbinv=1.1 nigbinv=0.0 aigc=0.43 bigc=0.054 cigc=0.075 aigsd=0.43 bigsd=0.054 cigsd=0.075 nigc=0.0 poxedge=1.0 pigcd=1.0 ntox=1.0 vfbsdoff=0.0 dlc=9.87908e-9 dwc=0.0 xpart=0.0 cgso=2.449068e-10 cgdo=2.449068e-10 cgbo=1.0e-13 cgdl=0.0 cgsl=0.0 clc=1.0e-7 cle=0.6 cf=1.4067e-12 ckappas=0.6 vfbcv=-1.0 acde=0.4 moin=6.9 noff=3.4037 voffcv=-0.17287 xrcrg1=12.0 xrcrg2=1.0 rbpb=50.0 rbpd=50.0 rbps=50.0 rbdb=50.0 rbsb=50.0 gbmin=1.0e-12 ef=0.84 noia=2.5e+42 noib=0.0 noic=0.0 em=41000000.0 ntnoi=1.0 lintnoi=-1.0e-7 af=1.0 kf=0.0 tnoia=15000000.0 tnoib=9900000.0 rnoia=0.94 rnoib=0.26 xl=0.0 xw=0.0 dmcg=0.0 dmdg=0.0 dmcgt=0.0 xgw=0.0 xgl=0.0 ngcon=1.0 jss=0.00275 jsws=6.0e-10 ijthsfwd=0.1 ijthsrev=0.1 bvs=11.7 xjbvs=1.0 pbs=0.729 cjs=0.001339749237 mjs=0.44 pbsws=0.2 cjsws=3.67354204e-11 mjsws=0.0009 pbswgs=0.95578 cjswgs=2.38232788e-10 mjswgs=0.8 tnom=30.0 kt1=-3.095566483e-01 lkt1=-8.549543620e-09 wkt1=2.833493486e-07 pkt1=3.322030121e-14 kt2=-4.861045418e-02 lkt2=6.599995580e-10 wkt2=2.187908274e-07 pkt2=-6.725591757e-14 at=1.706731833e+05 lat=-2.434586389e-02 wat=-6.806270065e-01 pat=1.050956893e-7 ute=-2.105517726e+00 lute=1.757373462e-07 wute=1.205657763e-05 pute=-4.716037219e-12 ua1=-3.629341746e-10 lua1=3.811965610e-16 wua1=2.502228661e-14 pua1=-9.645272601e-21 ub1=-9.356348756e-20 lub1=-2.020369101e-25 wub1=-1.133769218e-23 pub1=3.141411760e-30 uc1=1.727110250e-11 luc1=1.091145677e-17 wuc1=7.294628321e-16 puc1=-5.258795712e-22 kt1l=0.0 prt=0.0 tvoff=0.0 njs=1.2928 tpb=0.0012287 tcj=0.000792 tpbsw=0.0 tcjsw=1.0e-5 tpbswg=0.0 tcjswg=0.0 xtis=2.0 tvfbsdoff=0.0 ll=0.0 wl=0.0 lln=1.0 wln=1.0 lw=0.0 ww=0.0 lwn=1.0 wwn=1.0 lwl=0.0 wwl=0.0 llc=0.0 wlc=0.0 lwc=0.0 wwc=0.0 lwlc=0.0 wwlc=0.0 saref=1.75e-6 sbref=1.74e-6 kvth0=9.8e-9 lkvth0=0.0 wkvth0=2.0e-7 pkvth0=0.0 llodvth=0.0 wlodvth=1.0 wlod=0.0 stk2=0.0 lodk2=1.0 lodeta0=1.0 ku0=-2.7e-8 lku0=0.0 wku0=0.0 pku0=0.0 tku0=0.0 llodku0=0.0 wlodku0=1.0 kvsat=0.2 steta0=0.0
Netlist line no. 0:
Cannot compute substitute
Netlist line no. 0:
Undefined parameter [l]
Netlist line no. 0:
 Expression err: l*w*mult)))} toxm=4.148e-9 dtox=0.0 epsrox=3.9 xj=1.5e-7 ngate=1.0e+23 ndep=1.7e+17 nsd=1.0e+20 rsh=1.0 rshg=0.1 wint=2.1859e-8 lint=1.1932e-8 vth0={5.254411003e-01+sky130_fd_pr__nfet_01v8__vth0_slope_spectre*(sky130_fd_pr__nfet_01v8__vth0_slope/sqrt(l*w*mult))} lvth0=1.570679116e-09 wvth0=6.566827542e-07 pvth0=-1.569992447e-13 k1=5.733572999e-01 lk1=-8.891569812e-09 wk1=-2.346183834e-06 pk1=8.887682595e-13 k2=-4.124433183e-02 lk2=2.518042280e-09 wk2=7.188101962e-07 pk2=-2.516941442e-13 k3=2.0 k3b=0.54 w0=0.0 dvt0=0.0 dvt1=0.53 dvt2=-0.032 dvt0w=-3.58 dvt1w=1670600.0 dvt2w=0.068 dsub=2.608544335e-01 ldsub=-5.232627283e-09 wdsub=-8.540599614e-08 pdsub=5.230339683e-13 minv=0.0 voffl=5.8197729e-9 lpe0=1.0325e-7 lpeb=-7.082e-8 vbm=-3.0 dvtp0=0.0 dvtp1=0.0 phin=0.0 cdsc=0.0 cdscb=0.0 cdscd=0.0054 cit=0.0 voff={-1.000421031e-01+sky130_fd_pr__nfet_01v8__voff_slope_spectre*(sky130_fd_pr__nfet_01v8__voff_slope/sqrt(l*w*mult))} lvoff=2.594596381e-10 wvoff=-1.874716975e-07 pvoff=-2.593462075e-14 nfactor=2.753747772e+00 lnfactor=-7.213529842e-10 wnfactor=1.941378547e-07 pnfactor=7.210376231e-14 eta0=-3.611397891e-02 weta0=3.659797201e-6 etab=-5.538291750e-04 letab=1.859865862e-11 wetab=5.311487409e-09 petab=-1.859052765e-15 u0=2.991463485e-02 lu0=1.946544869e-10 wu0=-5.531066347e-09 pu0=-1.945693879e-14 ua=-9.104153604e-10 lua=1.695603236e-17 wua=-1.535549350e-15 pua=-1.694861952e-21 ub=1.754640735e-18 lub=-1.064246927e-26 wub=1.490474610e-24 pub=1.063781659e-30 uc=7.380749713e-11 luc=-5.924295007e-20 wuc=5.062814353e-17 puc=5.921705023e-24 ud=0.0 up=0.0 lp=1.0 eu=1.67 vtl=0.0 xn=3.0 vsat=7.910068385e+04 lvsat=-7.722104313e-04 wvsat=8.989229878e-02 pvsat=7.718728363e-8 a0=1.207060381e+00 wa0=2.037770596e-6 ags=4.506321897e-01 lags=3.963926782e-08 wags=1.330306265e-05 pags=-3.962193833e-12 a1=0.0 a2=0.42385546 b0=0.0 b1=0.0 keta=1.079528043e-03 lketa=3.771231919e-10 wketa=-1.206320433e-07 pketa=-3.769583212e-14 dwg=0.0 dwb=0.0 pclm=5.524057554e-01 lpclm=4.014281679e-09 wpclm=6.741296190e-07 ppclm=-4.012526715e-13 pdiblc1=2.847083853e-01 lpdiblc1=2.840836336e-08 wpdiblc1=1.052455833e-05 ppdiblc1=-2.839594379e-12 pdiblc2=4.856343117e-03 lpdiblc2=2.852550623e-11 wpdiblc2=-4.383054714e-09 ppdiblc2=-2.851303545e-15 pdiblcb=-3.853174870e-02 lpdiblcb=6.442952699e-09 wpdiblcb=1.352583289e-06 ppdiblcb=-6.440135969e-13 drout=5.984950270e-01 ldrout=-1.614757321e-08 wdrout=-3.847819773e-06 pdrout=1.614051381e-12 pscbe1=8.340729560e+08 lpscbe1=-7.705121978e+00 wpscbe1=-3.405805999e+03 ppscbe1=7.701753453e-4 pscbe2=1.0e-12 pvag=0.0 delta=0.01 fprout=0.0 pdits=0.0 pditsl=0.0 pditsd=0.0 lambda=0.0 lc=5.0e-9 rdsw=65.968 rsw=0.0 rdw=0.0 rdswmin=0.0 rdwmin=0.0 rswmin=0.0 prwb=0.0 prwg=0.021507 wr=1.0 alpha0=-6.438818033e-07 lalpha0=1.082416053e-13 walpha0=6.735871957e-11 palpha0=-1.081942843e-17 alpha1=0.85 beta0=1.351261868e+01 lbeta0=-1.053422766e-08 wbeta0=3.472294548e-05 pbeta0=1.052962231e-12 agidl=0.0 bgidl=2300000000.0 cgidl=0.5 egidl=0.8 toxref=4.148e-9 dlcig=0.0 aigbacc=1.0 bigbacc=0.0 cigbacc=0.0 nigbacc=0.0 aigbinv=0.35 bigbinv=0.03 cigbinv=0.006 eigbinv=1.1 nigbinv=0.0 aigc=0.43 bigc=0.054 cigc=0.075 aigsd=0.43 bigsd=0.054 cigsd=0.075 nigc=0.0 poxedge=1.0 pigcd=1.0 ntox=1.0 vfbsdoff=0.0 dlc=9.87908e-9 dwc=0.0 xpart=0.0 cgso=2.449068e-10 cgdo=2.449068e-10 cgbo=1.0e-13 cgdl=0.0 cgsl=0.0 clc=1.0e-7 cle=0.6 cf=1.4067e-12 ckappas=0.6 vfbcv=-1.0 acde=0.4 moin=6.9 noff=3.4037 voffcv=-0.17287 xrcrg1=12.0 xrcrg2=1.0 rbpb=50.0 rbpd=50.0 rbps=50.0 rbdb=50.0 rbsb=50.0 gbmin=1.0e-12 ef=0.84 noia=2.5e+42 noib=0.0 noic=0.0 em=41000000.0 ntnoi=1.0 lintnoi=-1.0e-7 af=1.0 kf=0.0 tnoia=15000000.0 tnoib=9900000.0 rnoia=0.94 rnoib=0.26 xl=0.0 xw=0.0 dmcg=0.0 dmdg=0.0 dmcgt=0.0 xgw=0.0 xgl=0.0 ngcon=1.0 jss=0.00275 jsws=6.0e-10 ijthsfwd=0.1 ijthsrev=0.1 bvs=11.7 xjbvs=1.0 pbs=0.729 cjs=0.001339749237 mjs=0.44 pbsws=0.2 cjsws=3.67354204e-11 mjsws=0.0009 pbswgs=0.95578 cjswgs=2.38232788e-10 mjswgs=0.8 tnom=30.0 kt1=-3.285216740e-01 lkt1=4.803878418e-10 wkt1=4.539688434e-07 pkt1=-4.801778259e-14 kt2=-4.748635604e-02 lkt2=1.247759616e-10 wkt2=1.037317342e-07 pkt2=-1.247214120e-14 at=1.176801617e+05 lat=8.860214216e-04 wat=-2.738963741e-01 pat=-8.856340708e-8 ute=-1.698659221e+00 lute=-1.798263502e-08 wute=-1.623367921e-06 pute=1.797477337e-12 ua1=4.605278602e-10 lua1=-1.088335838e-17 wua1=2.480129244e-15 pua1=1.087860040e-21 ub1=-4.886624463e-19 lub1=-1.391607233e-26 wub1=-7.661404497e-24 pub1=1.390998850e-30 uc1=4.720982253e-11 luc1=-3.343445632e-18 wuc1=-1.076907545e-15 puc1=3.341983944e-22 kt1l=0.0 prt=0.0 tvoff=0.0 njs=1.2928 tpb=0.0012287 tcj=0.000792 tpbsw=0.0 tcjsw=1.0e-5 tpbswg=0.0 tcjswg=0.0 xtis=2.0 tvfbsdoff=0.0 ll=0.0 wl=0.0 lln=1.0 wln=1.0 lw=0.0 ww=0.0 lwn=1.0 wwn=1.0 lwl=0.0 wwl=0.0 llc=0.0 wlc=0.0 lwc=0.0 wwc=0.0 lwlc=0.0 wwlc=0.0 saref=1.25e-6 sbref=1.24e-6 kvth0=9.8e-9 lkvth0=0.0 wkvth0=2.0e-7 pkvth0=0.0 llodvth=0.0 wlodvth=1.0 wlod=0.0 stk2=0.0 lodk2=1.0 lodeta0=1.0 ku0=-2.7e-8 lku0=0.0 wku0=0.0 pku0=0.0 tku0=0.0 llodku0=0.0 wlodku0=1.0 kvsat=0.2 steta0=0.0
Netlist line no. 0:
Cannot compute substitute
Netlist line no. 0:
Undefined parameter [l]
Netlist line no. 0:
 Expression err: l*w*mult)))} toxm=4.148e-9 dtox=0.0 epsrox=3.9 xj=1.5e-7 ngate=1.0e+23 ndep=1.7e+17 nsd=1.0e+20 rsh=1.0 rshg=0.1 wint=2.1859e-8 lint=1.1932e-8 vth0={5.226971824e-01+sky130_fd_pr__nfet_01v8__vth0_slope_spectre*(sky130_fd_pr__nfet_01v8__vth0_slope/sqrt(l*w*mult))} lvth0=2.191177740e-09 wvth0=9.309545878e-07 pvth0=-2.190219800e-13 k1=5.548884107e-01 lk1=-4.715089080e-09 wk1=-5.001023353e-07 pk1=4.713027737e-13 k2=-3.619588693e-02 lk2=1.376407145e-09 wk2=2.141864145e-07 pk2=-1.375805407e-13 k3=2.0 k3b=0.54 w0=0.0 dvt0=0.0 dvt1=0.53 dvt2=-0.032 dvt0w=-3.58 dvt1w=1670600.0 dvt2w=0.068 dsub=2.111893909e-01 ldsub=5.998426783e-09 wdsub=4.878927004e-06 pdsub=-5.995804390e-13 minv=0.0 voffl=5.8197729e-9 lpe0=1.0325e-7 lpeb=-7.082e-8 vbm=-3.0 dvtp0=0.0 dvtp1=0.0 phin=0.0 cdsc=0.0 cdscb=0.0 cdscd=0.0054 cit=0.0 voff={-1.009850091e-01+sky130_fd_pr__nfet_01v8__voff_slope_spectre*(sky130_fd_pr__nfet_01v8__voff_slope/sqrt(l*w*mult))} lvoff=4.726846397e-10 wvoff=-9.322231484e-08 pvoff=-4.724779914e-14 nfactor=2.807399696e+00 lnfactor=-1.285398430e-08 wnfactor=-5.168708917e-06 pnfactor=1.284836480e-12 eta0=-1.126962478e-01 leta0=1.731800795e-08 weta0=1.131467606e-05 peta0=-1.731043687e-12 etab=-5.054282121e-03 letab=1.036313086e-09 wetab=4.551600312e-07 petab=-1.035860031e-13 u0=3.278461961e-02 lu0=-4.543523865e-10 wu0=-2.924040723e-07 pu0=4.541537528e-14 ua=-6.073824236e-10 lua=-5.157062385e-17 wua=-3.182559504e-14 pua=5.154807821e-21 ub=1.544202603e-18 lub=3.694516816e-26 wub=2.252508788e-23 pub=-3.692901647e-30 uc=7.384766442e-11 luc=-6.832622020e-20 wuc=4.661317063e-17 puc=6.829634934e-24 ud=0.0 up=0.0 lp=1.0 eu=1.67 vtl=0.0 xn=3.0 vsat=7.743328342e+04 lvsat=-3.951511689e-04 wvsat=2.565594458e-01 pvsat=3.949784167e-8 a0=1.207060381e+00 wa0=2.037770596e-6 ags=8.312126992e-01 lags=-4.642368628e-08 wags=-2.473835008e-05 pags=4.640339077e-12 a1=0.0 a2=0.42385546 b0=0.0 b1=0.0 keta=2.632681265e-03 lketa=2.589933484e-11 wketa=-2.758794648e-07 pketa=-2.588801217e-15 dwg=0.0 dwb=0.0 pclm=5.492089963e-01 lpclm=4.737183991e-09 wpclm=9.936657716e-07 ppclm=-4.735112989e-13 pdiblc1=4.531641189e-01 lpdiblc1=-9.685542409e-09 wpdiblc1=-6.313650481e-06 ppdiblc1=9.681308084e-13 pdiblc2=6.031854250e-03 lpdiblc2=-2.372998792e-10 wpdiblc2=-1.218827769e-07 ppdiblc2=2.371961364e-14 pdiblcb=1.309104138e-02 lpdiblcb=-5.230818559e-09 wpdiblcb=-3.807438874e-06 ppdiblcb=5.228531750e-13 drout=4.798565019e-01 ldrout=1.068086830e-08 wdrout=8.010846098e-06 pdrout=-1.067619884e-12 pscbe1=7.993153719e+08 lpscbe1=1.548190656e-01 wpscbe1=6.843288191e+01 ppscbe1=-1.547513818e-5 pscbe2=1.0e-12 pvag=0.0 delta=0.01 fprout=0.0 pdits=0.0 pditsl=0.0 pditsd=0.0 lambda=0.0 lc=5.0e-9 rdsw=65.968 rsw=0.0 rdw=0.0 rdswmin=0.0 rdwmin=0.0 rswmin=0.0 prwb=0.0 prwg=0.021507 wr=1.0 alpha0=-6.040459718e-07 lalpha0=9.923328974e-14 walpha0=6.337687796e-11 palpha0=-9.918990693e-18 alpha1=9.069090007e-01 lalpha1=-1.286917378e-08 walpha1=-5.688412120e-06 palpha1=1.286354763e-12 beta0=1.277748789e+01 lbeta0=1.557053069e-07 wbeta0=1.082038852e-04 pbeta0=-1.556372356e-11 agidl=0.0 bgidl=2300000000.0 cgidl=0.5 egidl=0.8 toxref=4.148e-9 dlcig=0.0 aigbacc=1.0 bigbacc=0.0 cigbacc=0.0 nigbacc=0.0 aigbinv=0.35 bigbinv=0.03 cigbinv=0.006 eigbinv=1.1 nigbinv=0.0 aigc=0.43 bigc=0.054 cigc=0.075 aigsd=0.43 bigsd=0.054 cigsd=0.075 nigc=0.0 poxedge=1.0 pigcd=1.0 ntox=1.0 vfbsdoff=0.0 dlc=9.87908e-9 dwc=0.0 xpart=0.0 cgso=2.449068e-10 cgdo=2.449068e-10 cgbo=1.0e-13 cgdl=0.0 cgsl=0.0 clc=1.0e-7 cle=0.6 cf=1.4067e-12 ckappas=0.6 vfbcv=-1.0 acde=0.4 moin=6.9 noff=3.4037 voffcv=-0.17287 xrcrg1=12.0 xrcrg2=1.0 rbpb=50.0 rbpd=50.0 rbps=50.0 rbdb=50.0 rbsb=50.0 gbmin=1.0e-12 ef=0.84 noia=2.5e+42 noib=0.0 noic=0.0 em=41000000.0 ntnoi=1.0 lintnoi=-1.0e-7 af=1.0 kf=0.0 tnoia=15000000.0 tnoib=9900000.0 rnoia=0.94 rnoib=0.26 xl=0.0 xw=0.0 dmcg=0.0 dmdg=0.0 dmcgt=0.0 xgw=0.0 xgl=0.0 ngcon=1.0 jss=0.00275 jsws=6.0e-10 ijthsfwd=0.1 ijthsrev=0.1 bvs=11.7 xjbvs=1.0 pbs=0.729 cjs=0.001339749237 mjs=0.44 pbsws=0.2 cjsws=3.67354204e-11 mjsws=0.0009 pbswgs=0.95578 cjswgs=2.38232788e-10 mjswgs=0.8 tnom=30.0 kt1=-3.209694650e-01 lkt1=-1.227438479e-09 wkt1=-3.009218830e-07 pkt1=1.226901867e-13 kt2=-4.630223396e-02 lkt2=-1.429966677e-10 wkt2=-1.462870566e-08 pkt2=1.429341524e-14 at=1.232736586e+05 lat=-3.788696079e-04 wat=-8.330015340e-01 pat=3.787039736e-8 ute=-1.937606266e+00 lute=3.605189395e-08 wute=2.226089029e-05 pute=-3.603613278e-12 ua1=7.614258198e-11 lua1=7.603999089e-17 wua1=4.090185251e-14 pua1=-7.600674773e-21 ub1=-2.691863256e-19 lub1=-6.354752435e-26 wub1=-2.959942151e-23 pub1=6.351974265e-30 uc1=3.935986943e-11 luc1=-1.568288639e-18 wuc1=-2.922554192e-16 puc1=1.567603014e-22 kt1l=0.0 prt=0.0 tvoff=0.0 njs=1.2928 tpb=0.0012287 tcj=0.000792 tpbsw=0.0 tcjsw=1.0e-5 tpbswg=0.0 tcjswg=0.0 xtis=2.0 tvfbsdoff=0.0 ll=0.0 wl=0.0 lln=1.0 wln=1.0 lw=0.0 ww=0.0 lwn=1.0 wwn=1.0 lwl=0.0 wwl=0.0 llc=0.0 wlc=0.0 lwc=0.0 wwc=0.0 lwlc=0.0 wwlc=0.0 saref=1.1e-6 sbref=1.1e-6 kvth0=9.8e-9 lkvth0=0.0 wkvth0=2.0e-7 pkvth0=0.0 llodvth=0.0 wlodvth=1.0 wlod=0.0 stk2=0.0 lodk2=1.0 lodeta0=1.0 ku0=-2.7e-8 lku0=0.0 wku0=0.0 pku0=0.0 tku0=0.0 llodku0=0.0 wlodku0=1.0 kvsat=0.2 steta0=0.0
Netlist line no. 0:
Cannot compute substitute
Netlist line no. 0:
Undefined parameter [l]
Netlist line no. 0:
 Expression err: l*w*mult)))} toxm=4.148e-9 dtox=0.0 epsrox=3.9 xj=1.5e-7 ngate=1.0e+23 ndep=1.7e+17 nsd=1.0e+20 rsh=1.0 rshg=0.1 wint=2.1859e-8 lint=1.1932e-8 vth0={5.273127829e-01+sky130_fd_pr__nfet_01v8__vth0_slope_spectre*(sky130_fd_pr__nfet_01v8__vth0_slope/sqrt(l*w*mult))} lvth0=1.470516334e-09 wvth0=4.695963186e-07 pvth0=-1.469873453e-13 k1=5.297223808e-01 lk1=-7.857658419e-10 wk1=2.015400442e-06 pk1=7.854223208e-14 k2=-2.971925463e-02 lk2=3.651716839e-10 wk2=-4.331936701e-07 pk2=-3.650120381e-14 k3=2.0 k3b=0.54 w0=0.0 dvt0=0.0 dvt1=0.53 dvt2=-0.032 dvt0w=-3.58 dvt1w=1670600.0 dvt2w=0.068 dsub=2.268343873e-01 ldsub=3.555679632e-09 wdsub=3.315111336e-06 pdsub=-3.554125160e-13 minv=0.0 voffl=5.8197729e-9 lpe0=1.0325e-7 lpeb=-7.082e-8 vbm=-3.0 dvtp0=0.0 dvtp1=0.0 phin=0.0 cdsc=0.0 cdscb=0.0 cdscd=3.701734074e-03 lcdscd=2.651605064e-10 wcdscd=1.697523848e-07 pcdscd=-2.650445835e-14 cit=0.0 voff={-1.177707254e-01+sky130_fd_pr__nfet_01v8__voff_slope_spectre*(sky130_fd_pr__nfet_01v8__voff_slope/sqrt(l*w*mult))} lvoff=3.093539242e-09 wvoff=1.584615478e-06 pvoff=-3.092186808e-13 nfactor=2.181380466e+00 lnfactor=8.489015405e-08 wnfactor=5.740584569e-05 pnfactor=-8.485304178e-12 eta0=-1.127808870e-02 leta0=1.482982266e-09 weta0=1.177293955e-06 peta0=-1.482333935e-13 etab=-2.892433920e-03 letab=6.987707553e-10 wetab=2.390697228e-07 petab=-6.984652667e-14 u0=2.594768345e-02 lu0=6.131394777e-10 wu0=3.909906465e-07 pu0=-6.128714254e-14 ua=-1.451257292e-09 lua=8.018862258e-17 wua=5.252499926e-14 pua=-8.015356571e-21 ub=2.213250091e-18 lub=-6.751723050e-26 wub=-4.435041155e-23 pub=6.748771332e-30 uc=6.294653549e-11 luc=1.633732446e-18 wuc=1.136249488e-15 puc=-1.633018211e-22 ud=0.0 up=0.0 lp=1.0 eu=1.67 vtl=0.0 xn=3.0 vsat=8.018808429e+04 lvsat=-8.252747573e-04 wvsat=-1.880020667e-02 pvsat=8.249139637e-8 a0=1.207060381e+00 wa0=2.037770596e-6 ags=5.338841762e-01 wags=4.981503615e-6 a1=0.0 a2=0.42385546 b0=0.0 b1=0.0 keta=2.221854762e-02 lketa=-3.032159495e-09 wketa=-2.233609846e-06 pketa=3.030833895e-13 dwg=0.0 dwb=0.0 pclm=5.427722098e-01 lpclm=5.742198078e-09 wpclm=1.637063011e-06 ppclm=-5.739687704e-13 pdiblc1=3.948535541e-01 lpdiblc1=-5.811640668e-10 wpdiblc1=-4.851432247e-07 ppdiblc1=5.809099935e-14 pdiblc2=4.739215410e-03 lpdiblc2=-3.547242126e-11 wpdiblc2=7.324595465e-09 ppdiblc2=3.545691343e-15 pdiblcb=6.744804231e-03 lpdiblcb=-4.239942475e-09 wpdiblcb=-3.173092604e-06 ppdiblcb=4.238088857e-13 drout=4.915551465e-01 ldrout=8.854288734e-09 wdrout=6.841493081e-06 pdrout=-8.850417816e-13 pscbe1=7.986209646e+08 lpscbe1=2.632410390e-01 wpscbe1=1.378432507e+02 ppscbe1=-2.631259553e-5 pscbe2=1.0e-12 pvag=0.0 delta=0.01 fprout=0.0 pdits=0.0 pditsl=0.0 pditsd=0.0 lambda=0.0 lc=5.0e-9 rdsw=65.968 rsw=0.0 rdw=0.0 rdswmin=0.0 rdwmin=0.0 rswmin=0.0 prwb=0.0 prwg=0.021507 wr=1.0 alpha0=3.786292971e-08 lalpha0=-9.917985016e-16 walpha0=-7.859492192e-13 palpha0=9.913649071e-20 alpha1=7.172123318e-01 lalpha1=1.674930532e-08 walpha1=1.327296161e-05 palpha1=-1.674198286e-12 beta0=1.341620656e+01 lbeta0=5.597832913e-08 wbeta0=4.435994207e-05 pbeta0=-5.595385653e-12 agidl=0.0 bgidl=2300000000.0 cgidl=0.5 egidl=0.8 toxref=4.148e-9 dlcig=0.0 aigbacc=1.0 bigbacc=0.0 cigbacc=0.0 nigbacc=0.0 aigbinv=0.35 bigbinv=0.03 cigbinv=0.006 eigbinv=1.1 nigbinv=0.0 aigc=0.43 bigc=0.054 cigc=0.075 aigsd=0.43 bigsd=0.054 cigsd=0.075 nigc=0.0 poxedge=1.0 pigcd=1.0 ntox=1.0 vfbsdoff=0.0 dlc=9.87908e-9 dwc=0.0 xpart=0.0 cgso=2.449068e-10 cgdo=2.449068e-10 cgbo=1.0e-13 cgdl=0.0 cgsl=0.0 clc=1.0e-7 cle=0.6 cf=1.4067e-12 ckappas=0.6 vfbcv=-1.0 acde=0.4 moin=6.9 noff=3.4037 voffcv=-0.17287 xrcrg1=12.0 xrcrg2=1.0 rbpb=50.0 rbpd=50.0 rbps=50.0 rbdb=50.0 rbsb=50.0 gbmin=1.0e-12 ef=0.84 noia=2.5e+42 noib=0.0 noic=0.0 em=41000000.0 ntnoi=1.0 lintnoi=-1.0e-7 af=1.0 kf=0.0 tnoia=15000000.0 tnoib=9900000.0 rnoia=0.94 rnoib=0.26 xl=0.0 xw=0.0 dmcg=0.0 dmdg=0.0 dmcgt=0.0 xgw=0.0 xgl=0.0 ngcon=1.0 jss=0.00275 jsws=6.0e-10 ijthsfwd=0.1 ijthsrev=0.1 bvs=11.7 xjbvs=1.0 pbs=0.729 cjs=0.001339749237 mjs=0.44 pbsws=0.2 cjsws=3.67354204e-11 mjsws=0.0009 pbswgs=0.95578 cjswgs=2.38232788e-10 mjswgs=0.8 tnom=30.0 kt1=-3.150847439e-01 lkt1=-2.146255297e-09 wkt1=-8.891367274e-07 pkt1=2.145316997e-13 kt2=-4.510229766e-02 lkt2=-3.303499223e-10 wkt2=-1.345698772e-07 pkt2=3.302054999e-14 at=1.198289709e+05 lat=1.589701562e-04 wat=-4.886833555e-01 pat=-1.589006576e-8 ute=-1.132927038e+00 lute=-8.958750189e-08 wute=-5.817185347e-05 pute=8.954833602e-12 ua1=1.362272965e-09 lua1=-1.247712625e-16 wua1=-8.765495871e-14 pua1=1.247167150e-20 ub1=-1.134148121e-18 lub1=7.150415049e-26 wub1=5.685894360e-23 pub1=-7.147289030e-30 uc1=3.786297182e-11 luc1=-1.334569033e-18 wuc1=-1.426310994e-16 puc1=1.333985586e-22 kt1l=0.0 prt=0.0 tvoff=0.0 njs=1.2928 tpb=0.0012287 tcj=0.000792 tpbsw=0.0 tcjsw=1.0e-5 tpbswg=0.0 tcjswg=0.0 xtis=2.0 tvfbsdoff=0.0 ll=0.0 wl=0.0 lln=1.0 wln=1.0 lw=0.0 ww=0.0 lwn=1.0 wwn=1.0 lwl=0.0 wwl=0.0 llc=0.0 wlc=0.0 lwc=0.0 wwc=0.0 lwlc=0.0 wwlc=0.0 saref=1.04e-6 sbref=1.04e-6 kvth0=9.8e-9 lkvth0=0.0 wkvth0=2.0e-7 pkvth0=0.0 llodvth=0.0 wlodvth=1.0 wlod=0.0 stk2=0.0 lodk2=1.0 lodeta0=1.0 ku0=-2.7e-8 lku0=0.0 wku0=0.0 pku0=0.0 tku0=0.0 llodku0=0.0 wlodku0=1.0 kvsat=0.2 steta0=0.0
Netlist line no. 0:
Cannot compute substitute
Netlist line no. 0:
Undefined parameter [l]
Netlist line no. 0:
 Expression err: l*w*mult)))} toxm=4.148e-9 dtox=0.0 epsrox=3.9 xj=1.5e-7 ngate=1.0e+23 ndep=1.7e+17 nsd=1.0e+20 rsh=1.0 rshg=0.1 wint=2.1859e-8 lint=1.1932e-8 vth0={5.188270027e-01+sky130_fd_pr__nfet_01v8__vth0_slope_spectre*(sky130_fd_pr__nfet_01v8__vth0_slope/sqrt(l*w*mult))} lvth0=1.822538042e-08 wvth0=1.268111480e-09 pvth0=-1.267808858e-13 k1=5.418171603e-01 lk1=-9.512831965e-08 wk1=-6.618973728e-09 pk1=6.617394176e-13 k2=-2.674260415e-02 lk2=1.800885350e-09 wk2=1.253045661e-10 pk2=-1.252746634e-14 k3=2.0 k3b=0.54 w0=0.0 dvt0=0.0 dvt1=0.53 dvt2=-0.032 dvt0w=-3.58 dvt1w=1670600.0 dvt2w=0.068 dsub=0.56 minv=0.0 voffl=5.8197729e-9 lpe0=1.0325e-7 lpeb=-7.082e-8 vbm=-3.0 dvtp0=0.0 dvtp1=0.0 phin=0.0 cdsc=0.0 cdscb=0.0 cdscd=0.0054 cit=0.0 voff={-1.045334456e-01+sky130_fd_pr__nfet_01v8__voff_slope_spectre*(sky130_fd_pr__nfet_01v8__voff_slope/sqrt(l*w*mult))} lvoff=-7.349789870e-08 wvoff=-5.113941489e-09 pvoff=5.112721098e-13 nfactor=2.682355773e+00 lnfactor=-4.903406830e-06 wnfactor=-3.411762250e-07 pnfactor=3.410948067e-11 eta0=0.08 etab=-0.07 u0=3.155893251e-02 lu0=3.023953140e-08 wu0=2.104049190e-09 pu0=-2.103547080e-13 ua=-7.362717244e-10 lua=-2.238650203e-15 wua=-1.557639926e-16 pua=1.557268211e-20 ub=1.621184695e-18 lub=5.299465505e-24 wub=3.687337596e-25 pub=-3.686457650e-29 uc=4.772038059e-11 luc=1.521256295e-16 wuc=1.058481374e-17 puc=-1.058228778e-21 ud=0.0 up=0.0 lp=1.0 eu=1.67 vtl=0.0 xn=3.0 vsat=80000.0 a0=1.349496651e+00 la0=-1.487410044e-06 wa0=-1.034931348e-07 pa0=1.034684372e-11 ags=4.021842899e-01 lags=2.984297781e-07 wags=2.076457219e-08 pags=-2.075961693e-12 a1=0.0 a2=0.42385546 b0=0.0 b1=8.033273090e-25 lb1=1.303703901e-28 wb1=9.071096705e-30 pb1=-9.068931979e-34 keta=-7.180997052e-03 lketa=-1.613217878e-07 wketa=-1.122467714e-08 pketa=1.122199848e-12 dwg=0.0 dwb=0.0 pclm=5.760603957e-02 lpclm=-3.128257252e-06 wpclm=-2.176623391e-07 ppclm=2.176103961e-11 pdiblc1=0.39 pdiblc2=3.147856669e-03 lpdiblc2=-7.438021498e-09 wpdiblc2=-5.175332547e-10 ppdiblc2=5.174097506e-14 pdiblcb=-0.025 drout=0.56 pscbe1=7.174573788e+08 lpscbe1=3.720789982e+03 wpscbe1=2.588904254e+02 ppscbe1=-2.588286437e-2 pscbe2=1.0e-12 pvag=0.0 delta=0.01 fprout=0.0 pdits=0.0 pditsl=0.0 pditsd=0.0 lambda=0.0 lc=5.0e-9 rdsw=65.968 rsw=0.0 rdw=0.0 rdswmin=0.0 rdwmin=0.0 rswmin=0.0 prwb=0.0 prwg=0.021507 wr=1.0 alpha0=3.0e-8 alpha1=0.85 beta0=13.86 agidl=0.0 bgidl=2300000000.0 cgidl=0.5 egidl=0.8 toxref=4.148e-9 dlcig=0.0 aigbacc=1.0 bigbacc=0.0 cigbacc=0.0 nigbacc=0.0 aigbinv=0.35 bigbinv=0.03 cigbinv=0.006 eigbinv=1.1 nigbinv=0.0 aigc=0.43 bigc=0.054 cigc=0.075 aigsd=0.43 bigsd=0.054 cigsd=0.075 nigc=0.0 poxedge=1.0 pigcd=1.0 ntox=1.0 vfbsdoff=0.0 dlc=9.87908e-9 dwc=0.0 xpart=0.0 cgso=2.449068e-10 cgdo=2.449068e-10 cgbo=1.0e-13 cgdl=0.0 cgsl=0.0 clc=1.0e-7 cle=0.6 cf=1.4067e-12 ckappas=0.6 vfbcv=-1.0 acde=0.4 moin=6.9 noff=3.4037 voffcv=-0.17287 xrcrg1=12.0 xrcrg2=1.0 rbpb=50.0 rbpd=50.0 rbps=50.0 rbdb=50.0 rbsb=50.0 gbmin=1.0e-12 ef=0.84 noia=2.5e+42 noib=0.0 noic=0.0 em=41000000.0 ntnoi=1.0 lintnoi=-1.0e-7 af=1.0 kf=0.0 tnoia=15000000.0 tnoib=9900000.0 rnoia=0.94 rnoib=0.26 xl=0.0 xw=0.0 dmcg=0.0 dmdg=0.0 dmcgt=0.0 xgw=0.0 xgl=0.0 ngcon=1.0 jss=0.00275 jsws=6.0e-10 ijthsfwd=0.1 ijthsrev=0.1 bvs=11.7 xjbvs=1.0 pbs=0.729 cjs=0.001339749237 mjs=0.44 pbsws=0.2 cjsws=3.67354204e-11 mjsws=0.0009 pbswgs=0.95578 cjswgs=2.38232788e-10 mjswgs=0.8 tnom=30.0 kt1=-3.200657108e-01 lkt1=7.034031752e-07 wkt1=4.894238807e-08 pkt1=-4.893070846e-12 kt2=-4.543472374e-02 lkt2=1.213577724e-08 wkt2=8.444003956e-10 pkt2=-8.441988879e-14 at=140000.0 ute=-1.856901360e+00 lute=4.349097908e-06 wute=3.026077292e-07 pute=-3.025355149e-11 ua1=3.036703693e-10 lua1=7.233236521e-15 wua1=5.032844339e-16 pua1=-5.031643301e-20 ub1=-5.518932882e-19 lub1=-8.770577673e-24 wub1=-6.102517464e-25 pub1=6.101061160e-29 uc1=1.657054426e-11 luc1=-7.406544670e-17 wuc1=-5.153431152e-18 puc1=5.152201337e-22 kt1l=0.0 prt=0.0 tvoff=0.0 njs=1.2928 tpb=0.0012287 tcj=0.000792 tpbsw=0.0 tcjsw=1.0e-5 tpbswg=0.0 tcjswg=0.0 xtis=2.0 tvfbsdoff=0.0 ll=0.0 wl=0.0 lln=1.0 wln=1.0 lw=0.0 ww=0.0 lwn=1.0 wwn=1.0 lwl=0.0 wwl=0.0 llc=0.0 wlc=0.0 lwc=0.0 wwc=0.0 lwlc=0.0 wwlc=0.0 saref=3.0e-6 sbref=3.0e-6 kvth0=9.8e-9 lkvth0=0.0 wkvth0=2.0e-7 pkvth0=0.0 llodvth=0.0 wlodvth=1.0 wlod=0.0 stk2=0.0 lodk2=1.0 lodeta0=1.0 ku0=-2.7e-8 lku0=0.0 wku0=0.0 pku0=0.0 tku0=0.0 llodku0=0.0 wlodku0=1.0 kvsat=0.2 steta0=0.0
Netlist line no. 0:
Cannot compute substitute
Netlist line no. 0:
Undefined parameter [l]
Netlist line no. 0:
 Expression err: l*w*mult)))} toxm=4.148e-9 dtox=0.0 epsrox=3.9 xj=1.5e-7 ngate=1.0e+23 ndep=1.7e+17 nsd=1.0e+20 rsh=1.0 rshg=0.1 wint=2.1859e-8 lint=1.1932e-8 vth0={5.197393603e-01+sky130_fd_pr__nfet_01v8__vth0_slope_spectre*(sky130_fd_pr__nfet_01v8__vth0_slope/sqrt(l*w*mult))} wvth0=-5.078505592e-9 k1=5.370550621e-01 wk1=2.650752369e-8 k2=-2.665245232e-02 wk2=-5.018170326e-10 k3=2.0 k3b=0.54 w0=0.0 dvt0=0.0 dvt1=0.53 dvt2=-0.032 dvt0w=-3.58 dvt1w=1670600.0 dvt2w=0.068 dsub=0.56 minv=0.0 voffl=5.8197729e-9 lpe0=1.0325e-7 lpeb=-7.082e-8 vbm=-3.0 dvtp0=0.0 dvtp1=0.0 phin=0.0 cdsc=0.0 cdscb=0.0 cdscd=0.0054 cit=0.0 voff={-1.082127306e-01+sky130_fd_pr__nfet_01v8__voff_slope_spectre*(sky130_fd_pr__nfet_01v8__voff_slope/sqrt(l*w*mult))} wvoff=2.048020293e-8 nfactor=2.436892544e+00 wnfactor=1.366335211e-6 eta0=0.08 etab=-0.07 u0=3.307271532e-02 wu0=-8.426250962e-9 ua=-8.483379519e-10 wua=6.238002890e-16 ub=1.886474514e-18 wub=-1.476697033e-24 uc=5.533574872e-11 wuc=-4.238983453e-17 ud=0.0 up=0.0 lp=1.0 eu=1.67 vtl=0.0 xn=3.0 vsat=80000.0 a0=1.275037304e+00 wa0=4.144670811e-7 ags=4.171236044e-01 wags=-8.315751231e-8 a1=0.0 a2=0.42385546 b0=0.0 b1=7.329634002e-24 wb1=-3.632773307e-29 keta=-1.525672240e-02 wketa=4.495234571e-8 dwg=0.0 dwb=0.0 pclm=-9.899367781e-02 wpclm=8.716894561e-7 pdiblc1=0.39 pdiblc2=2.775511312e-03 wpdiblc2=2.072606052e-9 pdiblcb=-0.025 drout=0.56 pscbe1=9.037191254e+08 wpscbe1=-1.036798810e+3 pscbe2=1.0e-12 pvag=0.0 delta=0.01 fprout=0.0 pdits=0.0 pditsl=0.0 pditsd=0.0 lambda=0.0 lc=5.0e-9 rdsw=65.968 rsw=0.0 rdw=0.0 rdswmin=0.0 rdwmin=0.0 rswmin=0.0 prwb=0.0 prwg=0.021507 wr=1.0 alpha0=3.0e-8 alpha1=0.85 beta0=13.86 agidl=0.0 bgidl=2300000000.0 cgidl=0.5 egidl=0.8 toxref=4.148e-9 dlcig=0.0 aigbacc=1.0 bigbacc=0.0 cigbacc=0.0 nigbacc=0.0 aigbinv=0.35 bigbinv=0.03 cigbinv=0.006 eigbinv=1.1 nigbinv=0.0 aigc=0.43 bigc=0.054 cigc=0.075 aigsd=0.43 bigsd=0.054 cigsd=0.075 nigc=0.0 poxedge=1.0 pigcd=1.0 ntox=1.0 vfbsdoff=0.0 dlc=9.87908e-9 dwc=0.0 xpart=0.0 cgso=2.449068e-10 cgdo=2.449068e-10 cgbo=1.0e-13 cgdl=0.0 cgsl=0.0 clc=1.0e-7 cle=0.6 cf=1.4067e-12 ckappas=0.6 vfbcv=-1.0 acde=0.4 moin=6.9 noff=3.4037 voffcv=-0.17287 xrcrg1=12.0 xrcrg2=1.0 rbpb=50.0 rbpd=50.0 rbps=50.0 rbdb=50.0 rbsb=50.0 gbmin=1.0e-12 ef=0.84 noia=2.5e+42 noib=0.0 noic=0.0 em=41000000.0 ntnoi=1.0 lintnoi=-1.0e-7 af=1.0 kf=0.0 tnoia=15000000.0 tnoib=9900000.0 rnoia=0.94 rnoib=0.26 xl=0.0 xw=0.0 dmcg=0.0 dmdg=0.0 dmcgt=0.0 xgw=0.0 xgl=0.0 ngcon=1.0 jss=0.00275 jsws=6.0e-10 ijthsfwd=0.1 ijthsrev=0.1 bvs=11.7 xjbvs=1.0 pbs=0.729 cjs=0.001339749237 mjs=0.44 pbsws=0.2 cjsws=3.67354204e-11 mjsws=0.0009 pbswgs=0.95578 cjswgs=2.38232788e-10 mjswgs=0.8 tnom=30.0 kt1=-2.848535368e-01 wkt1=-1.960034236e-7 kt2=-4.482720999e-02 wkt2=-3.381636551e-9 at=140000.0 ute=-1.639186688e+00 wute=-1.211876929e-6 ua1=6.657642457e-10 wua1=-2.015542681e-15 ub1=-9.909460496e-19 wub1=2.443923075e-24 uc1=1.286284790e-11 wuc1=2.063835029e-17 kt1l=0.0 prt=0.0 tvoff=0.0 njs=1.2928 tpb=0.0012287 tcj=0.000792 tpbsw=0.0 tcjsw=1.0e-5 tpbswg=0.0 tcjswg=0.0 xtis=2.0 tvfbsdoff=0.0 ll=0.0 wl=0.0 lln=1.0 wln=1.0 lw=0.0 ww=0.0 lwn=1.0 wwn=1.0 lwl=0.0 wwl=0.0 llc=0.0 wlc=0.0 lwc=0.0 wwc=0.0 lwlc=0.0 wwlc=0.0 saref=3.0e-6 sbref=3.0e-6 kvth0=9.8e-9 lkvth0=0.0 wkvth0=2.0e-7 pkvth0=0.0 llodvth=0.0 wlodvth=1.0 wlod=0.0 stk2=0.0 lodk2=1.0 lodeta0=1.0 ku0=-2.7e-8 lku0=0.0 wku0=0.0 pku0=0.0 tku0=0.0 llodku0=0.0 wlodku0=1.0 kvsat=0.2 steta0=0.0
Netlist line no. 0:
Cannot compute substitute
Netlist line no. 0:
Undefined parameter [l]
Netlist line no. 0:
 Expression err: l*w*mult)))} toxm=4.148e-9 dtox=0.0 epsrox=3.9 xj=1.5e-7 ngate=1.0e+23 ndep=1.7e+17 nsd=1.0e+20 rsh=1.0 rshg=0.1 wint=2.1859e-8 lint=1.1932e-8 vth0={5.148619652e-01+sky130_fd_pr__nfet_01v8__vth0_slope_spectre*(sky130_fd_pr__nfet_01v8__vth0_slope/sqrt(l*w*mult))} lvth0=3.890276705e-08 wvth0=-1.422559663e-08 pvth0=7.295844208e-14 k1=5.247112438e-01 lk1=9.845597383e-08 wk1=4.912095597e-08 pk1=-1.803678113e-13 k2=-1.921302920e-02 lk2=-5.933785053e-08 wk2=-1.115997735e-08 pk2=8.501093616e-14 k3=2.0 k3b=0.54 w0=0.0 dvt0=0.0 dvt1=0.53 dvt2=-0.032 dvt0w=-3.58 dvt1w=1670600.0 dvt2w=0.068 dsub=0.56 minv=0.0 voffl=5.8197729e-9 lpe0=1.0325e-7 lpeb=-7.082e-8 vbm=-3.0 dvtp0=0.0 dvtp1=0.0 phin=0.0 cdsc=0.0 cdscb=0.0 cdscd=0.0054 cit=0.0 voff={-1.176438305e-01+sky130_fd_pr__nfet_01v8__voff_slope_spectre*(sky130_fd_pr__nfet_01v8__voff_slope/sqrt(l*w*mult))} lvoff=7.522373547e-08 wvoff=6.105726766e-08 pvoff=-3.236481868e-13 nfactor=2.199884560e+00 lnfactor=1.890407919e-06 wnfactor=2.730002323e-06 pnfactor=-1.087679434e-11 eta0=0.08 etab=-0.07 u0=3.447003714e-02 lu0=-1.114522883e-08 wu0=-1.594544082e-08 pu0=5.997408090e-14 ua=-8.875308152e-10 lua=3.126076079e-16 wua=8.606698490e-16 pua=-1.889303825e-21 ub=2.069398670e-18 lub=-1.459027940e-24 wub=-2.553784995e-24 pub=8.591000067e-30 uc=1.754519487e-10 luc=-9.580631468e-16 wuc=-8.340638805e-16 puc=6.314499858e-21 ud=0.0 up=0.0 lp=1.0 eu=1.67 vtl=0.0 xn=3.0 vsat=80000.0 a0=1.649897199e+00 la0=-2.989933508e-06 wa0=-1.530071156e-06 pa0=1.550990144e-11 ags=5.315577429e-01 lags=-9.127422523e-07 wags=-9.678943846e-07 pags=7.056781617e-12 a1=0.0 a2=0.42385546 b0=0.0 b1=1.461553941e-23 lb1=-5.811337240e-29 wb1=-7.243873489e-29 pb1=2.880262616e-34 keta=-2.849915097e-02 lketa=1.056234113e-07 wketa=8.996208595e-08 pketa=-3.590038095e-13 dwg=0.0 dwb=0.0 pclm=-1.019244331e+00 lpclm=7.340044362e-06 wpclm=3.396067243e-06 ppclm=-2.013478054e-11 pdiblc1=0.39 pdiblc2=2.814622145e-03 lpdiblc2=-3.119533207e-10 wpdiblc2=1.682108545e-09 ppdiblc2=3.114661224e-15 pdiblcb=-0.025 drout=0.56 pscbe1=1.004186824e+09 lpscbe1=-8.013440292e+02 wpscbe1=-2.049098704e+03 ppscbe1=8.074241626e-3 pscbe2=1.0e-12 pvag=0.0 delta=0.01 fprout=0.0 pdits=0.0 pditsl=0.0 pditsd=0.0 lambda=0.0 lc=5.0e-9 rdsw=65.968 rsw=0.0 rdw=0.0 rdswmin=0.0 rdwmin=0.0 rswmin=0.0 prwb=0.0 prwg=0.021507 wr=1.0 alpha0=3.0e-8 alpha1=0.85 beta0=13.86 agidl=0.0 bgidl=2300000000.0 cgidl=0.5 egidl=0.8 toxref=4.148e-9 dlcig=0.0 aigbacc=1.0 bigbacc=0.0 cigbacc=0.0 nigbacc=0.0 aigbinv=0.35 bigbinv=0.03 cigbinv=0.006 eigbinv=1.1 nigbinv=0.0 aigc=0.43 bigc=0.054 cigc=0.075 aigsd=0.43 bigsd=0.054 cigsd=0.075 nigc=0.0 poxedge=1.0 pigcd=1.0 ntox=1.0 vfbsdoff=0.0 dlc=9.87908e-9 dwc=0.0 xpart=0.0 cgso=2.449068e-10 cgdo=2.449068e-10 cgbo=1.0e-13 cgdl=0.0 cgsl=0.0 clc=1.0e-7 cle=0.6 cf=1.4067e-12 ckappas=0.6 vfbcv=-1.0 acde=0.4 moin=6.9 noff=3.4037 voffcv=-0.17287 xrcrg1=12.0 xrcrg2=1.0 rbpb=50.0 rbpd=50.0 rbps=50.0 rbdb=50.0 rbsb=50.0 gbmin=1.0e-12 ef=0.84 noia=2.5e+42 noib=0.0 noic=0.0 em=41000000.0 ntnoi=1.0 lintnoi=-1.0e-7 af=1.0 kf=0.0 tnoia=15000000.0 tnoib=9900000.0 rnoia=0.94 rnoib=0.26 xl=0.0 xw=0.0 dmcg=0.0 dmdg=0.0 dmcgt=0.0 xgw=0.0 xgl=0.0 ngcon=1.0 jss=0.00275 jsws=6.0e-10 ijthsfwd=0.1 ijthsrev=0.1 bvs=11.7 xjbvs=1.0 pbs=0.729 cjs=0.001339749237 mjs=0.44 pbsws=0.2 cjsws=3.67354204e-11 mjsws=0.0009 pbswgs=0.95578 cjswgs=2.38232788e-10 mjswgs=0.8 tnom=30.0 kt1=-2.596744755e-01 lkt1=-2.008316174e-07 wkt1=-3.565658870e-07 pkt1=1.280668045e-12 kt2=-3.215028598e-02 lkt2=-1.011128700e-07 wkt2=-8.381152135e-08 pkt2=6.415196996e-13 at=140000.0 ute=-1.119515970e+00 lute=-4.144964319e-06 wute=-4.551644711e-06 pute=2.663844204e-11 ua1=1.919486860e-09 lua1=-9.999862079e-15 wua1=-9.374855506e-15 pua1=5.869887996e-20 ub1=-2.193186578e-18 lub1=9.589233961e-24 wub1=9.024070989e-24 pub1=-5.248415466e-29 uc1=-2.774183419e-11 luc1=3.238684666e-16 wuc1=2.026400666e-16 puc1=-1.451670441e-21 kt1l=0.0 prt=0.0 tvoff=0.0 njs=1.2928 tpb=0.0012287 tcj=0.000792 tpbsw=0.0 tcjsw=1.0e-5 tpbswg=0.0 tcjswg=0.0 xtis=2.0 tvfbsdoff=0.0 ll=0.0 wl=0.0 lln=1.0 wln=1.0 lw=0.0 ww=0.0 lwn=1.0 wwn=1.0 lwl=0.0 wwl=0.0 llc=0.0 wlc=0.0 lwc=0.0 wwc=0.0 lwlc=0.0 wwlc=0.0 saref=3.0e-6 sbref=3.0e-6 kvth0=9.8e-9 lkvth0=0.0 wkvth0=2.0e-7 pkvth0=0.0 llodvth=0.0 wlodvth=1.0 wlod=0.0 stk2=0.0 lodk2=1.0 lodeta0=1.0 ku0=-2.7e-8 lku0=0.0 wku0=0.0 pku0=0.0 tku0=0.0 llodku0=0.0 wlodku0=1.0 kvsat=0.2 steta0=0.0
Netlist line no. 0:
Cannot compute substitute
Netlist line no. 0:
Undefined parameter [l]
Netlist line no. 0:
 Expression err: l*w*mult)))} toxm=4.148e-9 dtox=0.0 epsrox=3.9 xj=1.5e-7 ngate=1.0e+23 ndep=1.7e+17 nsd=1.0e+20 rsh=1.0 rshg=0.1 wint=2.1859e-8 lint=1.1932e-8 vth0={5.169068434e-01+sky130_fd_pr__nfet_01v8__vth0_slope_spectre*(sky130_fd_pr__nfet_01v8__vth0_slope/sqrt(l*w*mult))} lvth0=3.077205303e-08 wvth0=1.141358972e-08 pvth0=-2.898644975e-14 k1=5.755339035e-01 lk1=-1.036218331e-07 wk1=-1.766487394e-07 pk1=7.173232021e-13 k2=-4.335284486e-02 lk2=3.664533954e-08 wk2=8.385648891e-08 pk2=-2.927874559e-13 k3=2.0 k3b=0.54 w0=0.0 dvt0=0.0 dvt1=0.53 dvt2=-0.032 dvt0w=-3.58 dvt1w=1670600.0 dvt2w=0.068 dsub=8.564204000e-01 ldsub=-1.178607824e-6 minv=0.0 voffl=5.8197729e-9 lpe0=1.0325e-7 lpeb=-7.082e-8 vbm=-3.0 dvtp0=0.0 dvtp1=0.0 phin=0.0 cdsc=0.0 cdscb=0.0 cdscd=0.0054 cit=0.0 voff={-8.872126539e-02+sky130_fd_pr__nfet_01v8__voff_slope_spectre*(sky130_fd_pr__nfet_01v8__voff_slope/sqrt(l*w*mult))} lvoff=-3.977631701e-08 wvoff=-8.808335947e-08 pvoff=2.693552298e-13 nfactor=2.672677676e+00 lnfactor=1.051818902e-08 wnfactor=-5.449500866e-07 pnfactor=2.144861831e-12 eta0=1.585514060e-01 leta0=-3.123310732e-7 etab=-1.386683513e-01 letab=2.730347037e-07 wetab=-1.176909134e-11 petab=4.679550776e-17 u0=3.338360510e-02 lu0=-6.825427303e-09 wu0=-1.229844233e-09 pu0=1.462867558e-15 ua=-4.089115672e-10 lua=-1.590447614e-15 wua=-1.212818208e-15 pua=6.355166684e-21 ub=1.219303835e-18 lub=1.921064737e-24 wub=2.118126316e-24 pub=-9.985154686e-30 uc=-2.097160150e-10 luc=5.734170597e-16 wuc=1.541281884e-15 puc=-3.130197947e-21 ud=0.0 up=0.0 lp=1.0 eu=1.67 vtl=0.0 xn=3.0 vsat=80000.0 a0=5.067133469e-01 la0=1.555520962e-06 wa0=5.169582504e-06 pa0=-1.112883267e-11 ags=1.121682116e-02 lags=1.156204019e-06 wags=1.690610240e-06 pags=-3.513794328e-12 a1=0.0 a2=0.42385546 b0=0.0 b1=0.0 keta=-1.528191736e-05 lketa=-7.632325869e-09 wketa=-2.642739693e-08 pketa=1.037766034e-13 dwg=0.0 dwb=0.0 pclm=8.347779938e-01 lpclm=-3.180054735e-08 wpclm=-1.531916169e-06 ppclm=-5.404482921e-13 pdiblc1=0.39 pdiblc2=1.329904060e-03 lpdiblc2=5.591487706e-09 wpdiblc2=4.126490088e-10 ppdiblc2=8.162204988e-15 pdiblcb=-0.025 drout=0.56 pscbe1=8.052652765e+08 lpscbe1=-1.040490249e+01 wpscbe1=-3.662674833e+01 ppscbe1=7.237943593e-5 pscbe2=1.0e-12 pvag=0.0 delta=0.01 fprout=0.0 pdits=0.0 pditsl=0.0 pditsd=0.0 lambda=0.0 lc=5.0e-9 rdsw=65.968 rsw=0.0 rdw=0.0 rdswmin=0.0 rdwmin=0.0 rswmin=0.0 prwb=0.0 prwg=0.021507 wr=1.0 alpha0=3.0e-8 alpha1=0.85 beta0=13.86 agidl=0.0 bgidl=2300000000.0 cgidl=0.5 egidl=0.8 toxref=4.148e-9 dlcig=0.0 aigbacc=1.0 bigbacc=0.0 cigbacc=0.0 nigbacc=0.0 aigbinv=0.35 bigbinv=0.03 cigbinv=0.006 eigbinv=1.1 nigbinv=0.0 aigc=0.43 bigc=0.054 cigc=0.075 aigsd=0.43 bigsd=0.054 cigsd=0.075 nigc=0.0 poxedge=1.0 pigcd=1.0 ntox=1.0 vfbsdoff=0.0 dlc=9.87908e-9 dwc=0.0 xpart=0.0 cgso=2.449068e-10 cgdo=2.449068e-10 cgbo=1.0e-13 cgdl=0.0 cgsl=0.0 clc=1.0e-7 cle=0.6 cf=1.4067e-12 ckappas=0.6 vfbcv=-1.0 acde=0.4 moin=6.9 noff=3.4037 voffcv=-0.17287 xrcrg1=12.0 xrcrg2=1.0 rbpb=50.0 rbpd=50.0 rbps=50.0 rbdb=50.0 rbsb=50.0 gbmin=1.0e-12 ef=0.84 noia=2.5e+42 noib=0.0 noic=0.0 em=41000000.0 ntnoi=1.0 lintnoi=-1.0e-7 af=1.0 kf=0.0 tnoia=15000000.0 tnoib=9900000.0 rnoia=0.94 rnoib=0.26 xl=0.0 xw=0.0 dmcg=0.0 dmdg=0.0 dmcgt=0.0 xgw=0.0 xgl=0.0 ngcon=1.0 jss=0.00275 jsws=6.0e-10 ijthsfwd=0.1 ijthsrev=0.1 bvs=11.7 xjbvs=1.0 pbs=0.729 cjs=0.001339749237 mjs=0.44 pbsws=0.2 cjsws=3.67354204e-11 mjsws=0.0009 pbswgs=0.95578 cjswgs=2.38232788e-10 mjswgs=0.8 tnom=30.0 kt1=-3.046813117e-01 lkt1=-2.187831584e-08 wkt1=-1.199379323e-08 pkt1=-8.939746185e-14 kt2=-5.814765051e-02 lkt2=2.256187043e-09 wkt2=8.157323401e-08 pkt2=-1.607258004e-14 at=1.677727274e+05 lat=-1.104281413e-01 wat=-2.095053599e-02 pat=8.330218036e-8 ute=-2.533689068e+00 lute=1.477980245e-06 wute=3.783099279e-06 pute=-6.501633589e-12 ua1=-1.721514169e-09 lua1=4.477253188e-15 wua1=1.111578179e-14 pua1=-2.277468066e-20 ub1=1.239867144e-18 lub1=-4.061054535e-24 wub1=-1.001904353e-23 pub1=2.323385853e-29 uc1=6.727091944e-11 luc1=-5.391516357e-17 wuc1=-2.985607600e-16 puc1=5.411722084e-22 kt1l=0.0 prt=0.0 tvoff=0.0 njs=1.2928 tpb=0.0012287 tcj=0.000792 tpbsw=0.0 tcjsw=1.0e-5 tpbswg=0.0 tcjswg=0.0 xtis=2.0 tvfbsdoff=0.0 ll=0.0 wl=0.0 lln=1.0 wln=1.0 lw=0.0 ww=0.0 lwn=1.0 wwn=1.0 lwl=0.0 wwl=0.0 llc=0.0 wlc=0.0 lwc=0.0 wwc=0.0 lwlc=0.0 wwlc=0.0 saref=3.0e-6 sbref=3.0e-6 kvth0=9.8e-9 lkvth0=0.0 wkvth0=2.0e-7 pkvth0=0.0 llodvth=0.0 wlodvth=1.0 wlod=0.0 stk2=0.0 lodk2=1.0 lodeta0=1.0 ku0=-2.7e-8 lku0=0.0 wku0=0.0 pku0=0.0 tku0=0.0 llodku0=0.0 wlodku0=1.0 kvsat=0.2 steta0=0.0
Netlist line no. 0:
Cannot compute substitute
Netlist line no. 0:
Undefined parameter [l]
Netlist line no. 0:
 Expression err: l*w*mult)))} toxm=4.148e-9 dtox=0.0 epsrox=3.9 xj=1.5e-7 ngate=1.0e+23 ndep=1.7e+17 nsd=1.0e+20 rsh=1.0 rshg=0.1 wint=2.1859e-8 lint=1.1932e-8 vth0={5.143687095e-01+sky130_fd_pr__nfet_01v8__vth0_slope_spectre*(sky130_fd_pr__nfet_01v8__vth0_slope/sqrt(l*w*mult))} lvth0=3.578775095e-08 wvth0=-4.367374611e-08 pvth0=7.987361772e-14 k1=4.340894578e-01 lk1=1.758916280e-07 wk1=5.763314291e-07 pk1=-7.706680160e-13 k2=1.029185668e-02 lk2=-6.936388639e-08 wk2=-2.186303863e-07 pk2=3.049677476e-13 k3=2.0 k3b=0.54 w0=0.0 dvt0=0.0 dvt1=0.53 dvt2=-0.032 dvt0w=-3.58 dvt1w=1670600.0 dvt2w=0.068 dsub=1.133108041e+00 ldsub=-1.725380231e-06 wdsub=-6.073585748e-06 pdsub=1.200223145e-11 minv=0.0 voffl=5.8197729e-9 lpe0=1.0325e-7 lpeb=-7.082e-8 vbm=-3.0 dvtp0=0.0 dvtp1=0.0 phin=0.0 cdsc=0.0 cdscb=0.0 cdscd=0.0054 cit=0.0 voff={-1.040740042e-01+sky130_fd_pr__nfet_01v8__voff_slope_spectre*(sky130_fd_pr__nfet_01v8__voff_slope/sqrt(l*w*mult))} lvoff=-9.437217258e-09 wvoff=1.421041504e-07 pvoff=-1.855265952e-13 nfactor=2.605050780e+00 lnfactor=1.441581330e-07 wnfactor=1.834306898e-06 pnfactor=-2.556873549e-12 eta0=-6.411041806e-03 leta0=1.365715851e-08 weta0=3.428240498e-08 peta0=-6.774669465e-14 etab=-9.632053257e-04 letab=9.106073408e-10 wetab=1.939510043e-09 petab=-3.809197436e-15 u0=3.384188646e-02 lu0=-7.731053598e-09 wu0=-8.932636692e-10 pu0=7.977385883e-16 ua=-9.299748179e-10 lua=-5.607557664e-16 wua=3.545575809e-15 pua=-3.048067035e-21 ub=2.074615850e-18 lub=2.308518719e-25 wub=-5.362545924e-24 pub=4.797671032e-30 uc=7.461009665e-11 luc=1.154999470e-17 wuc=8.920838520e-17 puc=-2.607032319e-22 ud=0.0 up=0.0 lp=1.0 eu=1.67 vtl=0.0 xn=3.0 vsat=2.043538777e+04 lvsat=1.177077746e-01 wvsat=2.765056110e-01 pvsat=-5.464126921e-7 a0=2.240715045e+00 la0=-1.871102217e-06 wa0=-6.089017016e-06 pa0=1.111969115e-11 ags=1.178946725e+00 lags=-1.151389082e-06 wags=-6.244912459e-06 pags=1.216787776e-11 a1=0.0 a2=0.42385546 b0=0.0 b1=0.0 keta=5.144506780e-02 lketa=-1.093249755e-07 wketa=8.223904274e-08 pketa=-1.109630600e-13 dwg=0.0 dwb=0.0 pclm=1.096795738e+00 lpclm=-5.495832446e-07 wpclm=-2.602847633e-06 ppclm=1.575857928e-12 pdiblc1=-1.884416637e-01 lpdiblc1=1.143079395e-06 wpdiblc1=1.870182013e-06 ppdiblc1=-3.695734003e-12 pdiblc2=6.815002987e-03 lpdiblc2=-5.247813747e-09 wpdiblc2=-8.490490509e-09 ppdiblc2=2.575601950e-14 pdiblcb=-4.898724213e-02 lpdiblcb=4.740205271e-08 wpdiblcb=-1.593947540e-09 ppdiblcb=3.149857116e-15 drout=8.528408000e-01 ldrout=-5.786932471e-7 pscbe1=2.326916344e+09 lpscbe1=-3.017394357e+03 wpscbe1=-6.962207507e+03 ppscbe1=1.375826889e-2 pscbe2=1.0e-12 pvag=0.0 delta=0.01 fprout=0.0 pdits=0.0 pditsl=0.0 pditsd=0.0 lambda=0.0 lc=5.0e-9 rdsw=65.968 rsw=0.0 rdw=0.0 rdswmin=0.0 rdwmin=0.0 rswmin=0.0 prwb=0.0 prwg=0.021507 wr=1.0 alpha0=3.850882118e-07 lalpha0=-7.017025985e-13 walpha0=-2.019271745e-11 palpha0=3.990355590e-17 alpha1=8.168113760e-01 lalpha1=6.558523468e-8 beta0=1.182421474e+01 lbeta0=4.022988540e-06 wbeta0=-4.661152279e-06 pbeta0=9.211070820e-12 agidl=0.0 bgidl=2300000000.0 cgidl=0.5 egidl=0.8 toxref=4.148e-9 dlcig=0.0 aigbacc=1.0 bigbacc=0.0 cigbacc=0.0 nigbacc=0.0 aigbinv=0.35 bigbinv=0.03 cigbinv=0.006 eigbinv=1.1 nigbinv=0.0 aigc=0.43 bigc=0.054 cigc=0.075 aigsd=0.43 bigsd=0.054 cigsd=0.075 nigc=0.0 poxedge=1.0 pigcd=1.0 ntox=1.0 vfbsdoff=0.0 dlc=9.87908e-9 dwc=0.0 xpart=0.0 cgso=2.449068e-10 cgdo=2.449068e-10 cgbo=1.0e-13 cgdl=0.0 cgsl=0.0 clc=1.0e-7 cle=0.6 cf=1.4067e-12 ckappas=0.6 vfbcv=-1.0 acde=0.4 moin=6.9 noff=3.4037 voffcv=-0.17287 xrcrg1=12.0 xrcrg2=1.0 rbpb=50.0 rbpd=50.0 rbps=50.0 rbdb=50.0 rbsb=50.0 gbmin=1.0e-12 ef=0.84 noia=2.5e+42 noib=0.0 noic=0.0 em=41000000.0 ntnoi=1.0 lintnoi=-1.0e-7 af=1.0 kf=0.0 tnoia=15000000.0 tnoib=9900000.0 rnoia=0.94 rnoib=0.26 xl=0.0 xw=0.0 dmcg=0.0 dmdg=0.0 dmcgt=0.0 xgw=0.0 xgl=0.0 ngcon=1.0 jss=0.00275 jsws=6.0e-10 ijthsfwd=0.1 ijthsrev=0.1 bvs=11.7 xjbvs=1.0 pbs=0.729 cjs=0.001339749237 mjs=0.44 pbsws=0.2 cjsws=3.67354204e-11 mjsws=0.0009 pbswgs=0.95578 cjswgs=2.38232788e-10 mjswgs=0.8 tnom=30.0 kt1=-3.599484662e-01 lkt1=8.733709777e-08 wkt1=-9.806652819e-08 pkt1=8.069396833e-14 kt2=-8.698809060e-02 lkt2=5.924881895e-08 wkt2=1.457790957e-07 pkt2=-1.429520948e-13 at=1.562147447e+05 lat=-8.758799562e-02 wat=6.308299700e-02 pat=-8.275950939e-8 ute=-2.561971268e+00 lute=1.533869719e-06 wute=2.695685041e-07 pute=4.415810628e-13 ua1=-8.561527015e-10 lua1=2.767181240e-15 wua1=-2.339774547e-15 pua1=3.815328618e-21 ub1=-3.464362798e-19 lub1=-9.263032314e-25 wub1=4.605306503e-24 pub1=-5.665846047e-30 uc1=1.177503932e-11 luc1=5.575224298e-17 wuc1=3.960554356e-17 puc1=-1.270903981e-22 kt1l=0.0 prt=0.0 tvoff=0.0 njs=1.2928 tpb=0.0012287 tcj=0.000792 tpbsw=0.0 tcjsw=1.0e-5 tpbswg=0.0 tcjswg=0.0 xtis=2.0 tvfbsdoff=0.0 ll=0.0 wl=0.0 lln=1.0 wln=1.0 lw=0.0 ww=0.0 lwn=1.0 wwn=1.0 lwl=0.0 wwl=0.0 llc=0.0 wlc=0.0 lwc=0.0 wwc=0.0 lwlc=0.0 wwlc=0.0 saref=2.75e-6 sbref=2.74e-6 kvth0=9.8e-9 lkvth0=0.0 wkvth0=2.0e-7 pkvth0=0.0 llodvth=0.0 wlodvth=1.0 wlod=0.0 stk2=0.0 lodk2=1.0 lodeta0=1.0 ku0=-2.7e-8 lku0=0.0 wku0=0.0 pku0=0.0 tku0=0.0 llodku0=0.0 wlodku0=1.0 kvsat=0.2 steta0=0.0
Netlist line no. 0:
Cannot compute substitute
Netlist line no. 0:
Undefined parameter [l]
Netlist line no. 0:
 Expression err: l*w*mult)))} toxm=4.148e-9 dtox=0.0 epsrox=3.9 xj=1.5e-7 ngate=1.0e+23 ndep=1.7e+17 nsd=1.0e+20 rsh=1.0 rshg=0.1 wint=2.1859e-8 lint=1.1932e-8 vth0={5.410704426e-01+sky130_fd_pr__nfet_01v8__vth0_slope_spectre*(sky130_fd_pr__nfet_01v8__vth0_slope/sqrt(l*w*mult))} lvth0=9.723227935e-09 wvth0=-1.990202568e-08 pvth0=5.666918563e-14 k1=7.174267341e-01 lk1=-1.006840875e-07 wk1=-2.822257427e-07 pk1=6.740054740e-14 k2=-1.063608615e-01 lk2=4.450503134e-08 wk2=1.547920100e-07 pk2=-5.954329653e-14 k3=2.0 k3b=0.54 w0=0.0 dvt0=0.0 dvt1=0.53 dvt2=-0.032 dvt0w=-3.58 dvt1w=1670600.0 dvt2w=0.068 dsub=-1.707103633e+00 ldsub=1.047052631e-06 wdsub=1.278612866e-05 pdsub=-6.407414734e-12 minv=0.0 voffl=5.8197729e-9 lpe0=1.0325e-7 lpeb=-7.082e-8 vbm=-3.0 dvtp0=0.0 dvtp1=0.0 phin=0.0 cdsc=0.0 cdscb=0.0 cdscd=0.0054 cit=0.0 voff={-1.070483564e-01+sky130_fd_pr__nfet_01v8__voff_slope_spectre*(sky130_fd_pr__nfet_01v8__voff_slope/sqrt(l*w*mult))} lvoff=-6.533844985e-09 wvoff=-4.157563511e-09 pvoff=-4.275527082e-14 nfactor=2.540704899e+00 lnfactor=2.069684633e-07 wnfactor=-3.835168691e-07 pnfactor=-3.919759284e-13 eta0=-4.518150604e-01 leta0=4.484320556e-07 weta0=-6.856480996e-08 peta0=3.264617435e-14 etab=2.383608940e-04 letab=-2.622847026e-10 wetab=-3.831943721e-09 petab=1.824526356e-15 u0=2.910477426e-02 lu0=-3.106987844e-09 wu0=-7.266506832e-09 pu0=7.018890676e-15 ua=-1.278540520e-09 lua=-2.205082364e-16 wua=-6.451937388e-17 pua=4.758768363e-22 ub=2.255126144e-18 lub=5.464927589e-26 wub=-1.969794008e-25 pub=-2.446244123e-31 uc=8.709476103e-11 luc=-6.367356515e-19 wuc=-3.273185511e-16 puc=1.458837056e-22 ud=0.0 up=0.0 lp=1.0 eu=1.67 vtl=0.0 xn=3.0 vsat=1.852060170e+05 lvsat=-4.313076834e-02 wvsat=-6.794332083e-01 pvsat=3.867136032e-7 a0=-7.961271919e-01 la0=1.093268817e-06 wa0=1.035196488e-05 pa0=-4.928943148e-12 ags=-1.191493484e+00 lags=1.162482941e-06 wags=1.214398778e-05 pags=-5.782189765e-12 a1=0.0 a2=0.42385546 b0=0.0 b1=0.0 keta=-8.110229117e-02 lketa=2.005927328e-08 wketa=-1.416725565e-07 pketa=1.076051128e-13 dwg=0.0 dwb=0.0 pclm=2.650604639e-01 lpclm=2.623034991e-07 wpclm=-7.918838127e-08 ppclm=-8.875767193e-13 pdiblc1=6.792427227e-01 lpdiblc1=2.961014293e-07 wpdiblc1=-1.745617576e-06 ppdiblc1=-1.662218555e-13 pdiblc2=-1.452074582e-03 lpdiblc2=2.821978283e-09 wpdiblc2=4.188817168e-08 ppdiblc2=-2.342040629e-14 pdiblcb=2.297448426e-02 lpdiblcb=-2.284237904e-08 wpdiblcb=3.187895080e-09 ppdiblcb=-1.517871612e-15 drout=1.020293091e+00 ldrout=-7.421494565e-07 wdrout=-6.870374051e-06 pdrout=6.706419445e-12 pscbe1=-1.461636461e+09 lpscbe1=6.807484247e+02 wpscbe1=9.998067113e+03 ppscbe1=-2.797265733e-3 pscbe2=1.0e-12 pvag=0.0 delta=0.01 fprout=0.0 pdits=0.0 pditsl=0.0 pditsd=0.0 lambda=0.0 lc=5.0e-9 rdsw=65.968 rsw=0.0 rdw=0.0 rdswmin=0.0 rdwmin=0.0 rswmin=0.0 prwb=0.0 prwg=0.021507 wr=1.0 alpha0=-2.045363005e-05 lalpha0=1.963972049e-11 walpha0=1.383882472e-10 palpha0=-1.148930326e-16 alpha1=9.163772480e-01 lalpha1=-3.160459735e-8 beta0=1.569617265e+00 lbeta0=1.403287030e-05 wbeta0=9.041675896e-05 pbeta0=-8.359790114e-11 agidl=0.0 bgidl=2300000000.0 cgidl=0.5 egidl=0.8 toxref=4.148e-9 dlcig=0.0 aigbacc=1.0 bigbacc=0.0 cigbacc=0.0 nigbacc=0.0 aigbinv=0.35 bigbinv=0.03 cigbinv=0.006 eigbinv=1.1 nigbinv=0.0 aigc=0.43 bigc=0.054 cigc=0.075 aigsd=0.43 bigsd=0.054 cigsd=0.075 nigc=0.0 poxedge=1.0 pigcd=1.0 ntox=1.0 vfbsdoff=0.0 dlc=9.87908e-9 dwc=0.0 xpart=0.0 cgso=2.449068e-10 cgdo=2.449068e-10 cgbo=1.0e-13 cgdl=0.0 cgsl=0.0 clc=1.0e-7 cle=0.6 cf=1.4067e-12 ckappas=0.6 vfbcv=-1.0 acde=0.4 moin=6.9 noff=3.4037 voffcv=-0.17287 xrcrg1=12.0 xrcrg2=1.0 rbpb=50.0 rbpd=50.0 rbps=50.0 rbdb=50.0 rbsb=50.0 gbmin=1.0e-12 ef=0.84 noia=2.5e+42 noib=0.0 noic=0.0 em=41000000.0 ntnoi=1.0 lintnoi=-1.0e-7 af=1.0 kf=0.0 tnoia=15000000.0 tnoib=9900000.0 rnoia=0.94 rnoib=0.26 xl=0.0 xw=0.0 dmcg=0.0 dmdg=0.0 dmcgt=0.0 xgw=0.0 xgl=0.0 ngcon=1.0 jss=0.00275 jsws=6.0e-10 ijthsfwd=0.1 ijthsrev=0.1 bvs=11.7 xjbvs=1.0 pbs=0.729 cjs=0.001339749237 mjs=0.44 pbsws=0.2 cjsws=3.67354204e-11 mjsws=0.0009 pbswgs=0.95578 cjswgs=2.38232788e-10 mjswgs=0.8 tnom=30.0 kt1=-2.686553668e-01 lkt1=-1.777383129e-09 wkt1=-1.171499994e-09 pkt1=-1.388875692e-14 kt2=-1.757666685e-02 lkt2=-8.506170576e-09 wkt2=2.911051178e-09 pkt2=-3.493453254e-15 at=7.989657716e+04 lat=-1.309108480e-02 wat=-4.915933551e-02 pat=2.680427210e-8 ute=-6.803264328e-01 lute=-3.028715436e-07 wute=2.142545094e-06 pute=-1.386698813e-12 ua1=2.582253735e-09 lua1=-5.891710656e-16 wua1=4.534728970e-15 pua1=-2.895121747e-21 ub1=-1.239485765e-18 lub1=-5.456547926e-26 wub1=-3.366333665e-24 pub1=2.115558900e-30 uc1=1.498316505e-10 luc1=-7.900978524e-17 wuc1=-1.926657220e-16 puc1=9.963794597e-23 kt1l=0.0 prt=0.0 tvoff=0.0 njs=1.2928 tpb=0.0012287 tcj=0.000792 tpbsw=0.0 tcjsw=1.0e-5 tpbswg=0.0 tcjswg=0.0 xtis=2.0 tvfbsdoff=0.0 ll=0.0 wl=0.0 lln=1.0 wln=1.0 lw=0.0 ww=0.0 lwn=1.0 wwn=1.0 lwl=0.0 wwl=0.0 llc=0.0 wlc=0.0 lwc=0.0 wwc=0.0 lwlc=0.0 wwlc=0.0 saref=1.75e-6 sbref=1.74e-6 kvth0=9.8e-9 lkvth0=0.0 wkvth0=2.0e-7 pkvth0=0.0 llodvth=0.0 wlodvth=1.0 wlod=0.0 stk2=0.0 lodk2=1.0 lodeta0=1.0 ku0=-2.7e-8 lku0=0.0 wku0=0.0 pku0=0.0 tku0=0.0 llodku0=0.0 wlodku0=1.0 kvsat=0.2 steta0=0.0
Netlist line no. 0:
Cannot compute substitute
Netlist line no. 0:
Undefined parameter [l]
Netlist line no. 0:
 Expression err: l*w*mult)))} toxm=4.148e-9 dtox=0.0 epsrox=3.9 xj=1.5e-7 ngate=1.0e+23 ndep=1.7e+17 nsd=1.0e+20 rsh=1.0 rshg=0.1 wint=2.1859e-8 lint=1.1932e-8 vth0={6.000559132e-01+sky130_fd_pr__nfet_01v8__vth0_slope_spectre*(sky130_fd_pr__nfet_01v8__vth0_slope/sqrt(l*w*mult))} lvth0=-1.836187806e-08 wvth0=1.376410746e-07 pvth0=-1.834275596e-14 k1=2.822878334e-01 lk1=1.065012081e-07 wk1=-3.214225439e-07 pk1=8.606355554e-14 k2=5.208510788e-02 lk2=-3.093679874e-08 wk2=6.958429471e-08 pk2=-1.897283582e-14 k3=2.0 k3b=0.54 w0=0.0 dvt0=0.0 dvt1=0.53 dvt2=-0.032 dvt0w=-3.58 dvt1w=1670600.0 dvt2w=0.068 dsub=3.873282620e-01 ldsub=4.981820621e-08 wdsub=-9.651936128e-07 pdsub=1.400848462e-13 minv=0.0 voffl=5.8197729e-9 lpe0=1.0325e-7 lpeb=-7.082e-8 vbm=-3.0 dvtp0=0.0 dvtp1=0.0 phin=0.0 cdsc=0.0 cdscb=0.0 cdscd=0.0054 cit=0.0 voff={-1.031062123e-01+sky130_fd_pr__nfet_01v8__voff_slope_spectre*(sky130_fd_pr__nfet_01v8__voff_slope/sqrt(l*w*mult))} lvoff=-8.410841694e-09 wvoff=-1.661568897e-07 pvoff=3.437844034e-14 nfactor=3.336221671e+00 lnfactor=-1.718057102e-07 wnfactor=-3.857714841e-06 pnfactor=1.262214797e-12 eta0=0.49 etab=-2.569930338e-04 letab=-2.642886484e-11 wetab=3.246611503e-09 petab=-1.545828615e-15 u0=2.615389718e-02 lu0=-1.701969034e-09 wu0=2.062968544e-08 pu0=-6.263490727e-15 ua=-1.349419498e-09 lua=-1.867602034e-16 wua=1.518287228e-15 pua=-2.777543679e-22 ub=1.999102462e-18 lub=1.765513675e-25 wub=-2.100701032e-25 pub=-2.383914576e-31 uc=4.031218941e-12 luc=3.891280702e-17 wuc=5.360116115e-16 puc=-2.651788647e-22 ud=0.0 up=0.0 lp=1.0 eu=1.67 vtl=0.0 xn=3.0 vsat=4.892861902e+04 lvsat=2.175580681e-02 wvsat=2.997776903e-01 pvsat=-7.952395719e-8 a0=1.5 ags=2.363013912e+00 lags=-5.299459918e-07 wags=-3.898278820e-12 pags=1.856110885e-18 a1=0.0 a2=0.42385546 b0=0.0 b1=0.0 keta=-2.540973132e-02 lketa=-6.457959399e-09 wketa=6.363471476e-08 pketa=9.850929874e-15 dwg=0.0 dwb=0.0 pclm=1.211362672e+00 lpclm=-1.882650489e-07 wpclm=-3.909760516e-06 ppclm=9.362965747e-13 pdiblc1=3.226103049e+00 lpdiblc1=-9.165504588e-07 wpdiblc1=-9.936612421e-06 ppdiblc1=3.733805666e-12 pdiblc2=6.207590322e-03 lpdiblc2=-8.250639262e-10 wpdiblc2=-1.378271132e-08 ppdiblc2=3.086505259e-15 pdiblcb=6.042263145e-01 lpdiblcb=-2.995973005e-07 wpdiblcb=-3.118623057e-06 ppdiblcb=1.484888708e-12 drout=-1.929948742e+00 ldrout=6.625668886e-07 wdrout=1.374074810e-05 pdrout=-3.107277813e-12 pscbe1=-7.843924541e+08 lpscbe1=3.582881720e+02 wpscbe1=7.852695801e+03 ppscbe1=-1.775777218e-3 pscbe2=1.0e-12 pvag=0.0 delta=0.01 fprout=0.0 pdits=0.0 pditsl=0.0 pditsd=0.0 lambda=0.0 lc=5.0e-9 rdsw=65.968 rsw=0.0 rdw=0.0 rdswmin=0.0 rdwmin=0.0 rswmin=0.0 prwb=0.0 prwg=0.021507 wr=1.0 alpha0=4.138540030e-05 lalpha0=-9.804068065e-12 walpha0=-2.250088190e-10 palpha0=5.813339291e-17 alpha1=0.85 beta0=4.244059302e+01 lbeta0=-5.427272610e-06 wbeta0=-1.665082017e-04 pbeta0=3.873332194e-11 agidl=0.0 bgidl=2300000000.0 cgidl=0.5 egidl=0.8 toxref=4.148e-9 dlcig=0.0 aigbacc=1.0 bigbacc=0.0 cigbacc=0.0 nigbacc=0.0 aigbinv=0.35 bigbinv=0.03 cigbinv=0.006 eigbinv=1.1 nigbinv=0.0 aigc=0.43 bigc=0.054 cigc=0.075 aigsd=0.43 bigsd=0.054 cigsd=0.075 nigc=0.0 poxedge=1.0 pigcd=1.0 ntox=1.0 vfbsdoff=0.0 dlc=9.87908e-9 dwc=0.0 xpart=0.0 cgso=2.449068e-10 cgdo=2.449068e-10 cgbo=1.0e-13 cgdl=0.0 cgsl=0.0 clc=1.0e-7 cle=0.6 cf=1.4067e-12 ckappas=0.6 vfbcv=-1.0 acde=0.4 moin=6.9 noff=3.4037 voffcv=-0.17287 xrcrg1=12.0 xrcrg2=1.0 rbpb=50.0 rbpd=50.0 rbps=50.0 rbdb=50.0 rbsb=50.0 gbmin=1.0e-12 ef=0.84 noia=2.5e+42 noib=0.0 noic=0.0 em=41000000.0 ntnoi=1.0 lintnoi=-1.0e-7 af=1.0 kf=0.0 tnoia=15000000.0 tnoib=9900000.0 rnoia=0.94 rnoib=0.26 xl=0.0 xw=0.0 dmcg=0.0 dmdg=0.0 dmcgt=0.0 xgw=0.0 xgl=0.0 ngcon=1.0 jss=0.00275 jsws=6.0e-10 ijthsfwd=0.1 ijthsrev=0.1 bvs=11.7 xjbvs=1.0 pbs=0.729 cjs=0.001339749237 mjs=0.44 pbsws=0.2 cjsws=3.67354204e-11 mjsws=0.0009 pbswgs=0.95578 cjswgs=2.38232788e-10 mjswgs=0.8 tnom=30.0 kt1=-2.143827816e-01 lkt1=-2.761851474e-08 wkt1=-3.400134792e-07 pkt1=1.474461077e-13 kt2=-1.068137071e-03 lkt2=-1.636647591e-08 wkt2=-2.191664868e-07 pkt2=1.022456574e-13 at=7.917893229e+04 lat=-1.274938825e-02 wat=-6.070965093e-03 pat=6.288347764e-9 ute=-1.212504931e+00 lute=-4.948220236e-08 wute=-5.005194258e-06 pute=2.016597211e-12 ua1=1.746611269e-09 lua1=-1.912916045e-16 wua1=-6.466229626e-15 pua1=2.342830675e-21 ub1=-2.103656553e-18 lub1=3.568973429e-25 wub1=3.572949936e-24 pub1=-1.188483836e-30 uc1=-1.358491248e-10 luc1=5.701311637e-17 wuc1=1.965021153e-16 puc1=-8.565887140e-23 kt1l=0.0 prt=0.0 tvoff=0.0 njs=1.2928 tpb=0.0012287 tcj=0.000792 tpbsw=0.0 tcjsw=1.0e-5 tpbswg=0.0 tcjswg=0.0 xtis=2.0 tvfbsdoff=0.0 ll=0.0 wl=0.0 lln=1.0 wln=1.0 lw=0.0 ww=0.0 lwn=1.0 wwn=1.0 lwl=0.0 wwl=0.0 llc=0.0 wlc=0.0 lwc=0.0 wwc=0.0 lwlc=0.0 wwlc=0.0 saref=1.25e-6 sbref=1.24e-6 kvth0=9.8e-9 lkvth0=0.0 wkvth0=2.0e-7 pkvth0=0.0 llodvth=0.0 wlodvth=1.0 wlod=0.0 stk2=0.0 lodk2=1.0 lodeta0=1.0 ku0=-2.7e-8 lku0=0.0 wku0=0.0 pku0=0.0 tku0=0.0 llodku0=0.0 wlodku0=1.0 kvsat=0.2 steta0=0.0
Netlist line no. 0:
Cannot compute substitute
Netlist line no. 0:
Undefined parameter [l]
Netlist line no. 0:
[...]
Netlist line no. 0:
Cannot compute substitute
Netlist line no. 0:
Undefined parameter [l]
Netlist line no. 0:
 Expression err: l*w*mult)))} dtox=0.0 ndep=1.7000000000000000e+17 nsd=1.0e+20 rshg=0.1 rsh=1.0 vth0={-0.840802497661218+sky130_fd_pr__pfet_01v8__vth0_slope_spectre*(sky130_fd_pr__pfet_01v8__vth0_slope1/sqrt(l*w*mult))} lvth0=-3.5956497504153e-08 wvth0=-9.34607013807863e-08 pvth0=2.5980953455442e-14 k1=0.652310580953471 lk1=-2.00331804661336e-08 wk1=-8.78483273426215e-08 pk1=2.44207808213207e-14 k2=-0.0593001283568993 lk2=1.04868736188737e-08 wk2=2.83332739915483e-08 pk2=-7.87631017036254e-15 k3=-15.845 dvt0=4.4955 dvt1=0.294 dvt2=0.015 dvt0w=-4.9772 dvt1w=1147200.0 dvt2w=-0.00896 w0=0.0 k3b=2.0 phin=0.0 lpe0=0.0 lpeb=0.0 vbm=-3.0 dvtp0=0.0 dvtp1=0.0 vsat=70545.3486839054 lvsat=0.0294507273765786 wvsat=-0.0411419185125901 pvsat=1.14369596434779e-8 ua=-3.13778195670918e-09 lua=4.28270107687672e-16 wua=5.86739540055946e-16 pua=-1.63106551261072e-22 ub=2.59202836954875e-18 lub=-2.91666947050918e-25 wub=-4.18137715425344e-25 pub=1.1623726723566e-31 uc=3.2147585302442e-11 luc=-8.92123342522901e-18 wuc=-3.20432182145228e-17 puc=8.90763014501876e-24 rdsw=547.88 prwb=-0.32348 prwg=0.1376 wr=1.0 u0=-0.000413018338336589 lu0=1.49280621759751e-09 wu0=2.88183836135927e-09 pu0=-8.01116482397541e-16 a0=0.624509423823941 la0=5.21507089700311e-08 wa0=4.30712657488374e-07 pa0=-1.19732950229878e-13 keta=0.148658132257956 lketa=-4.40966187111775e-08 wketa=-8.40546669317359e-08 pketa=2.33661887510194e-14 a1=0.0 a2=1.10720647359648 la2=-1.62201331581259e-7 ags=-1.38602246243287 lags=5.02553940324069e-07 wags=1.43341797368734e-06 pags=-3.98472995669395e-13 b0=-3.06343235540447e-07 lb0=8.51597433614177e-14 wb0=8.68747504553648e-14 pb0=-2.4150138129586e-20 b1=-2.64855234056606e-08 lb1=7.36265768049279e-15 wb1=1.455485281586e-14 pb1=-4.0460744245753e-21 eu=1.67 rdswmin=0.0 rdw=0.0 rdwmin=0.0 rsw=0.0 rswmin=0.0 voff={-0.0312500269039497+sky130_fd_pr__pfet_01v8__voff_slope_spectre*(sky130_fd_pr__pfet_01v8__voff_slope1/sqrt(l*w*mult))} lvoff=-7.06481436089048e-08 wvoff=-9.94725413041316e-08 pvoff=2.7652172812053e-14 nfactor={1.81588987970968+sky130_fd_pr__pfet_01v8__nfactor_slope_spectre*(sky130_fd_pr__pfet_01v8__nfactor_slope1/sqrt(l*w*mult))} lnfactor=1.57391580232668e-08 wnfactor=1.37217183878385e-07 pnfactor=-3.81447305119846e-14 up=0.0 ud=0.0 lp=1.0 tvfbsdoff=0.0 tvoff=0.0 cit=1.0e-5 cdsc=0.00013 cdscb=0.00078 cdscd=0.0 eta0=0.49 etab=3.57163176063846e-05 letab=-2.73029576987636e-11 wetab=1.1018897441879e-11 petab=-3.06312126207307e-18 dsub=-0.328060466287976 ldsub=2.65773417518982e-07 wdsub=1.38330356973554e-07 pdsub=-3.84541792743643e-14 voffl=0.0 minv=0.0 pclm=0.457025456605324 lpclm=5.00733733698394e-08 wpclm=8.91537405301201e-08 ppclm=-2.4783670022487e-14 pdiblc1=-1.11960378024706 lpdiblc1=4.396530584396e-07 wpdiblc1=5.46231463784684e-07 ppdiblc1=-1.51845792154577e-13 pdiblc2=-0.0162210653812238 lpdiblc2=7.58587536598766e-09 wpdiblc2=3.15474122578327e-09 ppdiblc2=-8.7698020387304e-16 pdiblcb=-1.54218287319138 lpdiblcb=3.66161032552727e-07 wpdiblcb=7.05209436280256e-07 ppdiblcb=-1.96039760772676e-13 drout=1.1321919796254 ldrout=-1.94734038167184e-07 wdrout=8.14318382447382e-08 pdrout=-2.26370738499783e-14 pscbe1=800079104.265281 lpscbe1=-0.0417661028166094 pscbe2=-6.272960750791e-08 lpscbe2=1.99982564040461e-14 wpscbe2=2.92328672863239e-14 ppscbe2=-8.12638631119062e-21 pvag=0.0 delta=0.01 alpha0=1.0e-10 alpha1=1.0e-10 beta0=7.19133571530959 lbeta0=5.84282735417716e-07 wbeta0=8.60485623402909e-07 pbeta0=-2.39204677478528e-13 fprout=0.0 pdits=0.0 pditsl=0.0 pditsd=0.0 agidl=-1.62341750489791e-09 lagidl=4.79089385351561e-16 wagidl=1.18101635856685e-15 pagidl=-3.28308375485283e-22 bgidl=691592551.5264 lbgidl=162.83543190468 cgidl=300.0 egidl=0.1 aigbacc=0.43 bigbacc=0.054 cigbacc=0.075 nigbacc=1.0 aigbinv=0.35 bigbinv=0.03 cigbinv=0.006 eigbinv=1.1 nigbinv=3.0 aigc=0.43 bigc=0.054 cigc=0.075 nigc=1.0 aigsd=0.43 bigsd=0.054 cigsd=0.075 dlcig=0.0 poxedge=1.0 pigcd=1.0 ntox=1.0 toxref=4.23e-9 kt1=-0.506431088159999 lkt1=-1.56754982457793e-9 kt2=0.00428747494323944 lkt2=-6.08223148052129e-09 wkt2=-7.73050584050417e-08 pkt2=2.14898785759007e-14 at=151044.296905712 lat=-0.0234867326802252 wat=-0.0459761291982913 pat=1.27808122035746e-8 ute=0.349922085835547 lute=-1.48776977557252e-07 wute=-1.8109778323677e-07 pute=5.03430105664232e-14 ua1=-3.22741818666681e-10 lua1=2.01619642207514e-16 wua1=2.86420812545226e-16 pua1=-7.96215488378224e-23 ub1=6.14839413553695e-19 lub1=-4.88812468949642e-26 wub1=-5.11982050739465e-26 pub1=1.42324866320963e-32 uc1=5.072625803232e-11 luc1=-1.39421873659686e-17 kt1l=0.0 prt=0.0 xrcrg1=12.0 xrcrg2=1.0 rbpb=50.0 rbpd=50.0 rbps=50.0 rbdb=50.0 rbsb=50.0 gbmin=1.0e-12 noia=1.5e+42 noib=0.0 noic=0.0 em=41000000.0 af=1.0 ef=1.0 kf=0.0 ntnoi=1.0 dmcg=0.0 dmcgt=0.0 dmdg=0.0 xgw=0.0 xgl=0.0 ngcon=1.0 diomod=1.0 njs=1.3632 jss=2.1483e-5 jsws=8.04e-10 xtis=5.2 bvs=12.69 xjbvs=1.0 ijthsrev=0.1 ijthsfwd=0.1 tpb=0.0020386 tpbsw=0.001246 tpbswg=0.0 tcj=0.0012407 tcjsw=0.00037357 tcjswg=2.0e-12 cgdo=5.248925e-11 cgso=5.248925e-11 cgbo=0.0 capmod=2.0 xpart=0.0 cgsl=9.54827175e-12 cgdl=9.54827175e-12 cf=1.2e-11 clc=1.0e-7 cle=0.6 dlc=-3.0e-9 dwc=0.0 vfbcv=-0.14469 acde=0.8 moin=18.13 noff=3.9 voffcv=-0.10701 ngate=1.0e+23 lwc=0.0 llc=0.0 lwlc=0.0 wlc=0.0 wwc=0.0 wwlc=0.0 ckappas=0.6 cjs=0.0007380194454 mjs=0.34629 pbs=0.6587 cjsws=9.888892e-11 mjsws=0.29781 pbsws=0.7418 cjswgs=2.39155046e-10 mjswgs=0.9274 pbswgs=1.4338 saref=1.24e-6 sbref=1.24e-6 wlod={0+sky130_fd_pr__pfet_01v8__wlod_diff} kvth0={0+sky130_fd_pr__pfet_01v8__kvth0_diff} lkvth0={0+sky130_fd_pr__pfet_01v8__lkvth0_diff} wkvth0={0+sky130_fd_pr__pfet_01v8__wkvth0_diff} pkvth0=0.0 llodvth=0.0 wlodvth=1.0 stk2=0.0 lodk2=1.0 lodeta0=1.0 ku0={0+sky130_fd_pr__pfet_01v8__ku0_diff} lku0={0+sky130_fd_pr__pfet_01v8__lku0_diff} wku0={0+sky130_fd_pr__pfet_01v8__wku0_diff} pku0=0.0 llodku0=0.0 wlodku0=1.0 kvsat={0+sky130_fd_pr__pfet_01v8__kvsat_diff} steta0=0.0 tku0=0.0
Netlist line no. 0:
Cannot compute substitute
Netlist line no. 0:
Undefined parameter [l]
Netlist line no. 0:
 Expression err: l*w*mult)))} dtox=0.0 ndep=1.7000000000000000e+17 nsd=1.0e+20 rshg=0.1 rsh=1.0 vth0={-0.886563565314288+sky130_fd_pr__pfet_01v8__vth0_slope_spectre*(sky130_fd_pr__pfet_01v8__vth0_slope1/sqrt(l*w*mult))} lvth0=-2.32354698294124e-8 k1=-0.614523479319425 lk1=3.32131486281009e-7 k2=0.495077243737657 lk2=-1.43623383294948e-07 wk2=2.64697796016969e-23 pk2=6.31088724176809e-30 k3=-15.845 dvt0=4.4955 dvt1=0.294 dvt2=0.015 dvt0w=-4.9772 dvt1w=1147200.0 dvt2w=-0.00896 w0=0.0 k3b=2.0 phin=0.0 lpe0=0.0 lpeb=0.0 vbm=-3.0 dvtp0=0.0 dvtp1=0.0 vsat=347307.710436 lvsat=-0.0474858880421628 ua=9.63598011685708e-10 lua=-7.11864306966488e-16 ub=-6.81946012057137e-19 lub=6.18458643342942e-25 uc=-3.76598328805701e-15 luc=1.64564159885245e-20 rdsw=547.88 prwb=-0.32348 prwg=0.1376 wr=1.0 u0=0.0112250652182857 lu0=-1.74244135414081e-9 a0=-0.639616527428569 la0=4.03562553906814e-7 keta=-0.218982630074297 lketa=5.81031015280409e-08 wketa=-2.64697796016969e-23 pketa=-6.31088724176809e-30 a1=0.0 a2=0.0932382251080011 la2=1.19669673879557e-7 ags=-2.03898102803886 lags=6.84068586059746e-7 b0=2.25773945257143e-07 lb0=-6.27624474941426e-14 b1=-2.14741667485714e-08 lb1=5.96956066610187e-15 eu=1.67 rdswmin=0.0 rdw=0.0 rdwmin=0.0 rsw=0.0 rswmin=0.0 voff={-0.0280831423982866+sky130_fd_pr__pfet_01v8__voff_slope_spectre*(sky130_fd_pr__pfet_01v8__voff_slope/sqrt(l*w*mult))} lvoff=-7.15284994988652e-8 nfactor={0.122295219640005+sky130_fd_pr__pfet_01v8__nfactor_slope_spectre*(sky130_fd_pr__pfet_01v8__nfactor_slope1/sqrt(l*w*mult))} lnfactor=4.86538150386715e-7 up=0.0 ud=0.0 lp=1.0 tvfbsdoff=0.0 tvoff=0.0 cit=1.0e-5 cdsc=0.00013 cdscb=0.00078 cdscd=0.0 eta0=1.57846856239943 leta0=-3.02581198724292e-7 etab=0.293574393861143 letab=-8.16275328506713e-08 wetab=-3.05022850878929e-23 petab=3.8087190580202e-30 dsub=1.71815201014572 ldsub=-3.03049096379867e-7 voffl=0.0 minv=0.0 pclm=0.670335002130859 lpclm=-9.22412057171261e-9 pdiblc1=1.33192513110629 lpdiblc1=-2.41842560569694e-7 pdiblc2=0.0339036363136343 lpdiblc2=-6.34819020876257e-9 pdiblcb=-0.893515669637313 lpdiblcb=1.85839333971137e-7 drout=-1.256946487644 ldrout=4.694177860721e-7 pscbe1=799717484.766859 lpscbe1=0.0587597783114688 pscbe2=3.36027181733886e-08 lpscbe2=-6.78097414744674e-15 pvag=0.0 delta=0.01 alpha0=1.0e-10 alpha1=1.0e-10 beta0=12.01765178888 lbeta0=-7.57375217241974e-7 fprout=0.0 pdits=0.0 pditsl=0.0 pditsd=0.0 agidl=-1.33167749163486e-08 lagidl=3.72970242544591e-15 wagidl=5.91645678915759e-31 pagidl=2.11588983148012e-37 bgidl=2101455173.12 lbgidl=-229.089458546882 cgidl=300.0 egidl=0.1 aigbacc=0.43 bigbacc=0.054 cigbacc=0.075 nigbacc=1.0 aigbinv=0.35 bigbinv=0.03 cigbinv=0.006 eigbinv=1.1 nigbinv=3.0 aigc=0.43 bigc=0.054 cigc=0.075 nigc=1.0 aigsd=0.43 bigsd=0.054 cigsd=0.075 dlcig=0.0 poxedge=1.0 pigcd=1.0 ntox=1.0 toxref=4.23e-9 kt1=-0.183656948000001 lkt1=-9.12948874993758e-8 kt2=0.286688501485714 lkt2=-8.45863280470108e-08 wkt2=-1.32348898008484e-23 pkt2=6.31088724176809e-30 at=-18511.0919999995 lat=0.023647630770896 ute=-0.343222029714286 lute=4.39087688362147e-8 ua1=1.10675765542857e-09 lua1=-1.95764057597278e-16 wua1=-3.94430452610506e-31 ub1=6.36172624000001e-19 lub1=-5.48116234005122e-26 uc1=-6.99880644011428e-11 luc1=1.96149456986649e-17 wuc1=-2.31111593326468e-33 puc1=9.18354961579912e-40 kt1l=0.0 prt=0.0 xrcrg1=12.0 xrcrg2=1.0 rbpb=50.0 rbpd=50.0 rbps=50.0 rbdb=50.0 rbsb=50.0 gbmin=1.0e-12 noia=1.5e+42 noib=0.0 noic=0.0 em=41000000.0 af=1.0 ef=1.0 kf=0.0 ntnoi=1.0 dmcg=0.0 dmcgt=0.0 dmdg=0.0 xgw=0.0 xgl=0.0 ngcon=1.0 diomod=1.0 njs=1.3632 jss=2.1483e-5 jsws=8.04e-10 xtis=5.2 bvs=12.69 xjbvs=1.0 ijthsrev=0.1 ijthsfwd=0.1 tpb=0.0020386 tpbsw=0.001246 tpbswg=0.0 tcj=0.0012407 tcjsw=0.00037357 tcjswg=2.0e-12 cgdo=5.248925e-11 cgso=5.248925e-11 cgbo=0.0 capmod=2.0 xpart=0.0 cgsl=9.54827175e-12 cgdl=9.54827175e-12 cf=1.2e-11 clc=1.0e-7 cle=0.6 dlc=-3.0e-9 dwc=0.0 vfbcv=-0.14469 acde=0.8 moin=18.13 noff=3.9 voffcv=-0.10701 ngate=1.0e+23 lwc=0.0 llc=0.0 lwlc=0.0 wlc=0.0 wwc=0.0 wwlc=0.0 ckappas=0.6 cjs=0.0007380194454 mjs=0.34629 pbs=0.6587 cjsws=9.888892e-11 mjsws=0.29781 pbsws=0.7418 cjswgs=2.39155046e-10 mjswgs=0.9274 pbswgs=1.4338 saref=1.1e-6 sbref=1.1e-6 wlod={0+sky130_fd_pr__pfet_01v8__wlod_diff} kvth0={0+sky130_fd_pr__pfet_01v8__kvth0_diff} lkvth0={0+sky130_fd_pr__pfet_01v8__lkvth0_diff} wkvth0={0+sky130_fd_pr__pfet_01v8__wkvth0_diff} pkvth0=0.0 llodvth=0.0 wlodvth=1.0 stk2=0.0 lodk2=1.0 lodeta0=1.0 ku0={0+sky130_fd_pr__pfet_01v8__ku0_diff} lku0={0+sky130_fd_pr__pfet_01v8__lku0_diff} wku0={0+sky130_fd_pr__pfet_01v8__wku0_diff} pku0=0.0 llodku0=0.0 wlodku0=1.0 kvsat={0+sky130_fd_pr__pfet_01v8__kvsat_diff} steta0=0.0 tku0=0.0
Netlist line no. 0:
Cannot compute substitute
Netlist line no. 0:
Undefined parameter [l]
Netlist line no. 0:
 Expression err: l*w*mult)))} dtox=0.0 ndep=1.7000000000000000e+17 nsd=1.0e+20 rshg=0.1 rsh=1.0 vth0={-0.776926328257098+sky130_fd_pr__pfet_01v8__vth0_slope_spectre*(sky130_fd_pr__pfet_01v8__vth0_slope1/sqrt(l*w*mult))} lvth0=-4.60386994904642e-08 wvth0=-5.98288262512368e-08 pvth0=1.24436779143419e-14 k1=-4.07900378532117 lk1=1.0527018161657e-06 wk1=1.94253500968166e-06 pk1=-4.04023971593668e-13 k2=1.29649356002937 lk2=-3.1030836008783e-07 wk2=-5.26391545977979e-07 pk2=1.09483124864868e-13 k3=-15.845 dvt0=4.4955 dvt1=0.294 dvt2=0.015 dvt0w=-4.9772 dvt1w=1147200.0 dvt2w=-0.00896 w0=0.0 k3b=2.0 phin=0.0 lpe0=0.0 lpeb=0.0 vbm=-3.0 dvtp0=0.0 dvtp1=0.0 vsat=846266.409780116 lvsat=-0.151263310001347 wvsat=-0.308851457369786 pvsat=6.4237396915427e-8 ua=-1.13013872242038e-09 lua=-2.76392191113232e-16 wua=-4.79581531751624e-16 pua=9.97472036259565e-23 ub=1.1406395781353e-18 lub=2.39382711609998e-25 wub=2.71629804984974e-25 pub=-5.64957398792145e-32 uc=8.38613022801412e-13 luc=-1.58748308730012e-19 wuc=-6.7099385685329e-19 puc=1.39558670299202e-25 rdsw=547.88 prwb=-0.32348 prwg=0.1376 wr=1.0 u0=0.00855601333936618 lu0=-1.18731059194809e-09 wu0=-2.30152777805868e-09 pu0=4.7869015950287e-16 a0=9.35601258824698 la0=-1.67540835460431e-06 wa0=-2.23167762341037e-06 pa0=4.64162165537875e-13 keta=1.25740201008753 lketa=-2.48967187009938e-07 wketa=-3.69709775271674e-07 pketa=7.68951967392049e-14 a1=0.0 a2=-4.87718884908827 la2=1.15345886018749e-06 wa2=2.55181077670244e-06 pa2=-5.30746019824786e-13 ags=-14.0213761047436 lags=3.17626297327342e-06 wags=6.19089675612945e-06 pags=-1.28763223451385e-12 b0=-2.12154650021876e-06 lb0=4.25452037319499e-13 wb0=7.68215996674591e-13 pb0=-1.59779708716355e-19 b1=3.73452524038533e-08 lb1=-6.26417268457264e-15 wb1=-1.17973728584803e-15 pb1=2.45371198608958e-22 eu=1.67 rdswmin=0.0 rdw=0.0 rdwmin=0.0 rsw=0.0 rswmin=0.0 voff={-0.249048672134716+sky130_fd_pr__pfet_01v8__voff_slope_spectre*(sky130_fd_pr__pfet_01v8__voff_slope1/sqrt(l*w*mult))} lvoff=-2.55703209000449e-08 wvoff=-2.69321838674287e-08 pvoff=5.60157105821871e-15 nfactor={1.79675447745407+sky130_fd_pr__pfet_01v8__nfactor_slope_spectre*(sky130_fd_pr__pfet_01v8__nfactor_slope1/sqrt(l*w*mult))} lnfactor=1.38270718272485e-07 wnfactor=-1.04502337243465e-06 pnfactor=2.17352321185938e-13 up=0.0 ud=0.0 lp=1.0 tvfbsdoff=0.0 tvoff=0.0 cit=1.0e-5 cdsc=0.00013 cdscb=0.00078 cdscd=0.0 eta0=-2.10768448899337 leta0=4.64094402128792e-07 weta0=1.01685195923991e-06 peta0=-2.1149300529839e-13 etab=-1.00242774536384 letab=1.87925360082455e-07 wetab=2.40489554679903e-07 petab=-5.00189414987637e-14 dsub=0.267634130210667 ldsub=-1.35878356793621e-9 voffl=0.0 minv=0.0 pclm=3.82107240499831 lpclm=-6.64539691519309e-07 wpclm=-1.68372244112318e-06 ppclm=3.50194063084328e-13 pdiblc1=2.71046970141515 lpdiblc1=-5.28563288659095e-07 wpdiblc1=-1.38835564837737e-06 ppdiblc1=2.88761314594713e-13 pdiblc2=0.06202563151509 lpdiblc2=-1.21972277467229e-08 wpdiblc2=-3.22003398438507e-08 ppdiblc2=6.69728428344282e-15 pdiblcb=1.82981488155382 lpdiblcb=-3.80580740710005e-07 wpdiblcb=-7.41456619258789e-07 ppdiblcb=1.54214079326397e-13 drout=-0.670911346534268 ldrout=3.4752950914297e-07 wdrout=8.94592901825945e-07 pdrout=-1.86064588464975e-13 pscbe1=745143924.105118 lpscbe1=11.4094055132259 wpscbe1=29.3695151567299 ppscbe1=-6.10850671841799e-6 pscbe2=-7.30189637019774e-08 lpscbe2=1.53950562224469e-14 wpscbe2=1.29412336499907e-14 ppscbe2=-2.69162130439426e-21 pvag=0.0 delta=0.01 alpha0=1.0e-10 alpha1=1.0e-10 beta0=29.926269521579 lbeta0=-4.48215280223057e-06 wbeta0=-9.58105658337296e-06 pbeta0=1.99274479666258e-12 fprout=0.0 pdits=0.0 pditsl=0.0 pditsd=0.0 agidl=2.96473383143427e-08 lagidl=-5.2063175571791e-15 wagidl=-3.54856754072194e-15 pagidl=7.38059465659677e-22 bgidl=1000000000.0 cgidl=300.0 egidl=0.1 aigbacc=0.43 bigbacc=0.054 cigbacc=0.075 nigbacc=1.0 aigbinv=0.35 bigbinv=0.03 cigbinv=0.006 eigbinv=1.1 nigbinv=3.0 aigc=0.43 bigc=0.054 cigc=0.075 nigc=1.0 aigsd=0.43 bigsd=0.054 cigsd=0.075 dlcig=0.0 poxedge=1.0 pigcd=1.0 ntox=1.0 toxref=4.23e-9 kt1=-0.139535831054751 lkt1=-1.00471550370584e-07 wkt1=-1.95830446189887e-07 pkt1=4.07303828421421e-14 kt2=-0.12 at=416639.166937892 lat=-0.0668584012850783 wat=-0.0560647610235083 pat=1.16607975157574e-8 ute=-3.91515044854398 lute=7.86827016811766e-07 wute=1.60577003701783e-06 pute=-3.33980898459265e-13 ua1=-1.35143182854246e-10 lua1=6.25364139554892e-17 wua1=2.06528315784479e-16 pua1=-4.29554113433821e-23 ub1=3.7264e-19 uc1=2.69989354843281e-10 luc1=-5.10962777751443e-17 wuc1=-1.3249509601598e-16 puc1=2.75573900301716e-23 kt1l=0.0 prt=0.0 xrcrg1=12.0 xrcrg2=1.0 rbpb=50.0 rbpd=50.0 rbps=50.0 rbdb=50.0 rbsb=50.0 gbmin=1.0e-12 noia=1.5e+42 noib=0.0 noic=0.0 em=41000000.0 af=1.0 ef=1.0 kf=0.0 ntnoi=1.0 dmcg=0.0 dmcgt=0.0 dmdg=0.0 xgw=0.0 xgl=0.0 ngcon=1.0 diomod=1.0 njs=1.3632 jss=2.1483e-5 jsws=8.04e-10 xtis=5.2 bvs=12.69 xjbvs=1.0 ijthsrev=0.1 ijthsfwd=0.1 tpb=0.0020386 tpbsw=0.001246 tpbswg=0.0 tcj=0.0012407 tcjsw=0.00037357 tcjswg=2.0e-12 cgdo=5.248925e-11 cgso=5.248925e-11 cgbo=0.0 capmod=2.0 xpart=0.0 cgsl=9.54827175e-12 cgdl=9.54827175e-12 cf=1.2e-11 clc=1.0e-7 cle=0.6 dlc=-3.0e-9 dwc=0.0 vfbcv=-0.14469 acde=0.8 moin=18.13 noff=3.9 voffcv=-0.10701 ngate=1.0e+23 lwc=0.0 llc=0.0 lwlc=0.0 wlc=0.0 wwc=0.0 wwlc=0.0 ckappas=0.6 cjs=0.0007380194454 mjs=0.34629 pbs=0.6587 cjsws=9.888892e-11 mjsws=0.29781 pbsws=0.7418 cjswgs=2.39155046e-10 mjswgs=0.9274 pbswgs=1.4338 saref=1.04e-6 sbref=1.04e-6 wlod={0+sky130_fd_pr__pfet_01v8__wlod_diff} kvth0={0+sky130_fd_pr__pfet_01v8__kvth0_diff} lkvth0={0+sky130_fd_pr__pfet_01v8__lkvth0_diff} wkvth0={0+sky130_fd_pr__pfet_01v8__wkvth0_diff} pkvth0=0.0 llodvth=0.0 wlodvth=1.0 stk2=0.0 lodk2=1.0 lodeta0=1.0 ku0={0+sky130_fd_pr__pfet_01v8__ku0_diff} lku0={0+sky130_fd_pr__pfet_01v8__lku0_diff} wku0={0+sky130_fd_pr__pfet_01v8__wku0_diff} pku0=0.0 llodku0=0.0 wlodku0=1.0 kvsat={0+sky130_fd_pr__pfet_01v8__kvsat_diff} steta0=0.0 tku0=0.0
Netlist line no. 0:
Cannot compute substitute

ERROR: fatal error in ngspice, exit(1)
