
Note: No compatibility mode selected!


Circuit: ** sch_path: /home/lxbtlr/dtilo/schemas/mc_testbench.sch

Doing analysis at TEMP = 27.000000 and TNOM = 27.000000

Note: include: has no value, DC 0 assumed
Note: Starting dynamic gmin stepping
Trying gmin =   1.0000E-03 Note: One successful gmin step
Trying gmin =   1.0000E-04 Note: One successful gmin step
Trying gmin =   1.0000E-05 Note: One successful gmin step
Trying gmin =   1.0000E-06 Warning: Further gmin increment
Trying gmin =   5.6234E-06 Note: One successful gmin step
Trying gmin =   2.3714E-06 Warning: Further gmin increment
Trying gmin =   4.5316E-06 Note: One successful gmin step
Trying gmin =   3.2781E-06 Note: One successful gmin step
Trying gmin =   2.0169E-06 Warning: Further gmin increment
Trying gmin =   2.9033E-06 Note: One successful gmin step
Trying gmin =   2.4199E-06 Note: One successful gmin step
Trying gmin =   1.8414E-06 Note: One successful gmin step
Trying gmin =   1.2222E-06 Note: One successful gmin step
Trying gmin =   6.6098E-07 Note: One successful gmin step
Trying gmin =   2.6287E-07 Note: One successful gmin step
Trying gmin =   6.5927E-08 Warning: Further gmin increment
Trying gmin =   1.8602E-07 Note: One successful gmin step
Trying gmin =   1.3164E-07 Note: One successful gmin step
Trying gmin =   7.8369E-08 Note: One successful gmin step
Trying gmin =   3.5997E-08 Note: One successful gmin step
Trying gmin =   1.1206E-08 Note: One successful gmin step
Trying gmin =   1.9463E-09 Note: One successful gmin step
Trying gmin =   1.9463E-10 Note: One successful gmin step
Trying gmin =   1.9463E-11 Note: One successful gmin step
Trying gmin =   1.9463E-12 Note: One successful gmin step
Trying gmin =   1.0000E-12 Note: One successful gmin step
Note: Dynamic gmin stepping completed

No. of Data Rows : 1
./schemas/simulation/MCDACDATA1.csv: No such file or directory
Doing analysis at TEMP = 27.000000 and TNOM = 27.000000

Note: include: has no value, DC 0 assumed
Note: Starting dynamic gmin stepping
Trying gmin =   1.0000E-03 Note: One successful gmin step
Trying gmin =   1.0000E-04 Note: One successful gmin step
Trying gmin =   1.0000E-05 Note: One successful gmin step
Trying gmin =   1.0000E-06 Warning: Further gmin increment
Trying gmin =   5.6234E-06 Note: One successful gmin step
Trying gmin =   2.3714E-06 Note: One successful gmin step
Trying gmin =   1.5399E-06 Note: One successful gmin step
Trying gmin =   8.0584E-07 Note: One successful gmin step
Trying gmin =   3.0505E-07 Note: One successful gmin step
Trying gmin =   7.1050E-08 Warning: Further gmin increment
Trying gmin =   2.1192E-07 Note: One successful gmin step
Trying gmin =   1.4722E-07 Note: One successful gmin step
Trying gmin =   1.2271E-07 Note: One successful gmin step
Trying gmin =   9.3372E-08 Note: One successful gmin step
Trying gmin =   6.1978E-08 Note: One successful gmin step
Trying gmin =   3.3517E-08 Note: One successful gmin step
Trying gmin =   1.3330E-08 Note: One successful gmin step
Trying gmin =   3.3430E-09 Note: One successful gmin step
Trying gmin =   4.1988E-10 Note: One successful gmin step
Trying gmin =   4.1988E-11 Note: One successful gmin step
Trying gmin =   4.1988E-12 Note: One successful gmin step
Trying gmin =   1.0000E-12 Note: One successful gmin step
Note: Dynamic gmin stepping completed

No. of Data Rows : 1
./schemas/simulation/MCDACDATA1.csv: No such file or directory
Doing analysis at TEMP = 27.000000 and TNOM = 27.000000

Note: include: has no value, DC 0 assumed
Note: Starting dynamic gmin stepping
Trying gmin =   1.0000E-03 Note: One successful gmin step
Trying gmin =   1.0000E-04 Note: One successful gmin step
Trying gmin =   1.0000E-05 Note: One successful gmin step
Trying gmin =   1.0000E-06 Warning: Further gmin increment
Trying gmin =   5.6234E-06 Note: One successful gmin step
Trying gmin =   2.3714E-06 Note: One successful gmin step
Trying gmin =   1.5399E-06 Note: One successful gmin step
Trying gmin =   8.0584E-07 Note: One successful gmin step
Trying gmin =   3.0505E-07 Note: One successful gmin step
Trying gmin =   7.1050E-08 Note: One successful gmin step
Trying gmin =   3.4289E-08 Note: One successful gmin step
Trying gmin =   1.1496E-08 Note: One successful gmin step
Trying gmin =   2.2317E-09 Note: One successful gmin step
Trying gmin =   2.2317E-10 Note: One successful gmin step
Trying gmin =   2.2317E-11 Note: One successful gmin step
Trying gmin =   2.2317E-12 Note: One successful gmin step
Trying gmin =   1.0000E-12 Note: One successful gmin step
Note: Dynamic gmin stepping completed

No. of Data Rows : 1
./schemas/simulation/MCDACDATA1.csv: No such file or directory
Doing analysis at TEMP = 27.000000 and TNOM = 27.000000

Note: include: has no value, DC 0 assumed
Note: Starting dynamic gmin stepping
Trying gmin =   1.0000E-03 Note: One successful gmin step
Trying gmin =   1.0000E-04 Note: One successful gmin step
Trying gmin =   1.0000E-05 Note: One successful gmin step
Trying gmin =   1.0000E-06 Warning: Further gmin increment
Trying gmin =   5.6234E-06 Note: One successful gmin step
Trying gmin =   2.3714E-06 Note: One successful gmin step
Trying gmin =   1.5399E-06 Note: One successful gmin step
Trying gmin =   8.0584E-07 Note: One successful gmin step
Trying gmin =   3.0505E-07 Note: One successful gmin step
Trying gmin =   7.1050E-08 Warning: Further gmin increment
Trying gmin =   2.1192E-07 Note: One successful gmin step
Trying gmin =   1.4722E-07 Warning: Further gmin increment
Trying gmin =   1.9347E-07 Note: One successful gmin step
Trying gmin =   1.6877E-07 Note: One successful gmin step
Trying gmin =   1.3750E-07 Note: One successful gmin step
Trying gmin =   1.0112E-07 Note: One successful gmin step
Trying gmin =   6.3767E-08 Note: One successful gmin step
Trying gmin =   3.1934E-08 Note: One successful gmin step
Trying gmin =   1.1317E-08 Note: One successful gmin step
Trying gmin =   2.3877E-09 Note: One successful gmin step
Trying gmin =   2.3877E-10 Note: One successful gmin step
Trying gmin =   2.3877E-11 Note: One successful gmin step
Trying gmin =   2.3877E-12 Note: One successful gmin step
Trying gmin =   1.0000E-12 Note: One successful gmin step
Note: Dynamic gmin stepping completed

No. of Data Rows : 1
./schemas/simulation/MCDACDATA1.csv: No such file or directory
Doing analysis at TEMP = 27.000000 and TNOM = 27.000000

Note: include: has no value, DC 0 assumed
Note: Starting dynamic gmin stepping
Trying gmin =   1.0000E-03 Note: One successful gmin step
Trying gmin =   1.0000E-04 Note: One successful gmin step
Trying gmin =   1.0000E-05 Note: One successful gmin step
Trying gmin =   1.0000E-06 Warning: Further gmin increment
Trying gmin =   5.6234E-06 Note: One successful gmin step
Trying gmin =   2.3714E-06 Note: One successful gmin step
Trying gmin =   1.5399E-06 Note: One successful gmin step
Trying gmin =   8.0584E-07 Note: One successful gmin step
Trying gmin =   3.0505E-07 Note: One successful gmin step
Trying gmin =   7.1050E-08 Warning: Further gmin increment
Trying gmin =   2.1192E-07 Note: One successful gmin step
Trying gmin =   1.4722E-07 Note: One successful gmin step
Trying gmin =   1.0227E-07 Note: One successful gmin step
Trying gmin =   5.9219E-08 Note: One successful gmin step
Trying gmin =   2.6092E-08 Note: One successful gmin step
Trying gmin =   7.6308E-09 Note: One successful gmin step
Trying gmin =   1.2069E-09 Note: One successful gmin step
Trying gmin =   1.2069E-10 Note: One successful gmin step
Trying gmin =   1.2069E-11 Note: One successful gmin step
Trying gmin =   1.2069E-12 Note: One successful gmin step
Trying gmin =   1.0000E-12 Note: One successful gmin step
Note: Dynamic gmin stepping completed

No. of Data Rows : 1
./schemas/simulation/MCDACDATA1.csv: No such file or directory
Doing analysis at TEMP = 27.000000 and TNOM = 27.000000

Note: include: has no value, DC 0 assumed
Note: Starting dynamic gmin stepping
Trying gmin =   1.0000E-03 Note: One successful gmin step
Trying gmin =   1.0000E-04 Note: One successful gmin step
Trying gmin =   1.0000E-05 Note: One successful gmin step
Trying gmin =   1.0000E-06 Warning: Further gmin increment
Trying gmin =   5.6234E-06 Note: One successful gmin step
Trying gmin =   2.3714E-06 Note: One successful gmin step
Trying gmin =   1.5399E-06 Note: One successful gmin step
Trying gmin =   8.0584E-07 Note: One successful gmin step
Trying gmin =   3.0505E-07 Note: One successful gmin step
Trying gmin =   7.1050E-08 Note: One successful gmin step
Trying gmin =   3.4289E-08 Note: One successful gmin step
Trying gmin =   1.1496E-08 Note: One successful gmin step
Trying gmin =   2.2317E-09 Note: One successful gmin step
Trying gmin =   2.2317E-10 Note: One successful gmin step
Trying gmin =   2.2317E-11 Note: One successful gmin step
Trying gmin =   2.2317E-12 Note: One successful gmin step
Trying gmin =   1.0000E-12 Note: One successful gmin step
Note: Dynamic gmin stepping completed

No. of Data Rows : 1
./schemas/simulation/MCDACDATA1.csv: No such file or directory
Doing analysis at TEMP = 27.000000 and TNOM = 27.000000

Note: include: has no value, DC 0 assumed
Note: Starting dynamic gmin stepping
Trying gmin =   1.0000E-03 Note: One successful gmin step
Trying gmin =   1.0000E-04 Note: One successful gmin step
Trying gmin =   1.0000E-05 Note: One successful gmin step
Trying gmin =   1.0000E-06 Warning: Further gmin increment
Trying gmin =   5.6234E-06 Note: One successful gmin step
Trying gmin =   2.3714E-06 Note: One successful gmin step
Trying gmin =   1.5399E-06 Note: One successful gmin step
Trying gmin =   8.0584E-07 Note: One successful gmin step
Trying gmin =   3.0505E-07 Note: One successful gmin step
Trying gmin =   7.1050E-08 Note: One successful gmin step
Trying gmin =   3.4289E-08 Note: One successful gmin step
Trying gmin =   1.1496E-08 Note: One successful gmin step
Trying gmin =   2.2317E-09 Note: One successful gmin step
Trying gmin =   2.2317E-10 Note: One successful gmin step
Trying gmin =   2.2317E-11 Note: One successful gmin step
Trying gmin =   2.2317E-12 Note: One successful gmin step
Trying gmin =   1.0000E-12 Note: One successful gmin step
Note: Dynamic gmin stepping completed

No. of Data Rows : 1
./schemas/simulation/MCDACDATA1.csv: No such file or directory
Doing analysis at TEMP = 27.000000 and TNOM = 27.000000

Note: include: has no value, DC 0 assumed
Note: Starting dynamic gmin stepping
Trying gmin =   1.0000E-03 Note: One successful gmin step
Trying gmin =   1.0000E-04 Note: One successful gmin step
Trying gmin =   1.0000E-05 Note: One successful gmin step
Trying gmin =   1.0000E-06 Warning: Further gmin increment
Trying gmin =   5.6234E-06 Note: One successful gmin step
Trying gmin =   2.3714E-06 Warning: Further gmin increment
Trying gmin =   4.5316E-06 Note: One successful gmin step
Trying gmin =   3.2781E-06 Note: One successful gmin step
Trying gmin =   2.0169E-06 Warning: Further gmin increment
Trying gmin =   2.9033E-06 Note: One successful gmin step
Trying gmin =   2.4199E-06 Note: One successful gmin step
Trying gmin =   1.8414E-06 Note: One successful gmin step
Trying gmin =   1.2222E-06 Note: One successful gmin step
Trying gmin =   6.6098E-07 Note: One successful gmin step
Trying gmin =   2.6287E-07 Note: One successful gmin step
Trying gmin =   6.5927E-08 Warning: Further gmin increment
Trying gmin =   1.8602E-07 Note: One successful gmin step
Trying gmin =   1.3164E-07 Note: One successful gmin step
Trying gmin =   7.8369E-08 Note: One successful gmin step
Trying gmin =   3.5997E-08 Note: One successful gmin step
Trying gmin =   1.1206E-08 Note: One successful gmin step
Trying gmin =   1.9463E-09 Note: One successful gmin step
Trying gmin =   1.9463E-10 Note: One successful gmin step
Trying gmin =   1.9463E-11 Note: One successful gmin step
Trying gmin =   1.9463E-12 Note: One successful gmin step
Trying gmin =   1.0000E-12 Note: One successful gmin step
Note: Dynamic gmin stepping completed

No. of Data Rows : 1
./schemas/simulation/MCDACDATA1.csv: No such file or directory
Doing analysis at TEMP = 27.000000 and TNOM = 27.000000

Note: include: has no value, DC 0 assumed
Note: Starting dynamic gmin stepping
Trying gmin =   1.0000E-03 Note: One successful gmin step
Trying gmin =   1.0000E-04 Note: One successful gmin step
Trying gmin =   1.0000E-05 Note: One successful gmin step
Trying gmin =   1.0000E-06 Warning: Further gmin increment
Trying gmin =   5.6234E-06 Note: One successful gmin step
Trying gmin =   2.3714E-06 Note: One successful gmin step
Trying gmin =   1.5399E-06 Note: One successful gmin step
Trying gmin =   8.0584E-07 Note: One successful gmin step
Trying gmin =   3.0505E-07 Note: One successful gmin step
Trying gmin =   7.1050E-08 Note: One successful gmin step
Trying gmin =   1.6548E-08 Note: One successful gmin step
Trying gmin =   1.8601E-09 Note: One successful gmin step
Trying gmin =   1.8601E-10 Note: One successful gmin step
Trying gmin =   1.8601E-11 Note: One successful gmin step
Trying gmin =   1.8601E-12 Note: One successful gmin step
Trying gmin =   1.0000E-12 Note: One successful gmin step
Note: Dynamic gmin stepping completed

No. of Data Rows : 1
./schemas/simulation/MCDACDATA1.csv: No such file or directory
Doing analysis at TEMP = 27.000000 and TNOM = 27.000000

Note: include: has no value, DC 0 assumed
Note: Starting dynamic gmin stepping
Trying gmin =   1.0000E-03 Note: One successful gmin step
Trying gmin =   1.0000E-04 Note: One successful gmin step
Trying gmin =   1.0000E-05 Note: One successful gmin step
Trying gmin =   1.0000E-06 Warning: Further gmin increment
Trying gmin =   5.6234E-06 Note: One successful gmin step
Trying gmin =   2.3714E-06 Note: One successful gmin step
Trying gmin =   1.5399E-06 Note: One successful gmin step
Trying gmin =   8.0584E-07 Note: One successful gmin step
Trying gmin =   3.0505E-07 Note: One successful gmin step
Trying gmin =   7.1050E-08 Warning: Further gmin increment
Trying gmin =   2.1192E-07 Note: One successful gmin step
Trying gmin =   1.4722E-07 Note: One successful gmin step
Trying gmin =   1.0227E-07 Note: One successful gmin step
Trying gmin =   5.9219E-08 Note: One successful gmin step
Trying gmin =   2.6092E-08 Note: One successful gmin step
Trying gmin =   7.6308E-09 Note: One successful gmin step
Trying gmin =   1.2069E-09 Note: One successful gmin step
Trying gmin =   1.2069E-10 Note: One successful gmin step
Trying gmin =   1.2069E-11 Note: One successful gmin step
Trying gmin =   1.2069E-12 Note: One successful gmin step
Trying gmin =   1.0000E-12 Note: One successful gmin step
Note: Dynamic gmin stepping completed

No. of Data Rows : 1
./schemas/simulation/MCDACDATA1.csv: No such file or directory
Doing analysis at TEMP = 27.000000 and TNOM = 27.000000

Note: include: has no value, DC 0 assumed
Note: Starting dynamic gmin stepping
Trying gmin =   1.0000E-03 Note: One successful gmin step
Trying gmin =   1.0000E-04 Note: One successful gmin step
Trying gmin =   1.0000E-05 Note: One successful gmin step
Trying gmin =   1.0000E-06 Warning: Further gmin increment
Trying gmin =   5.6234E-06 Note: One successful gmin step
Trying gmin =   2.3714E-06 Note: One successful gmin step
Trying gmin =   1.5399E-06 Note: One successful gmin step
Trying gmin =   8.0584E-07 Note: One successful gmin step
Trying gmin =   3.0505E-07 Note: One successful gmin step
Trying gmin =   7.1050E-08 Note: One successful gmin step
Trying gmin =   1.6548E-08 Note: One successful gmin step
Trying gmin =   1.8601E-09 Note: One successful gmin step
Trying gmin =   1.8601E-10 Note: One successful gmin step
Trying gmin =   1.8601E-11 Note: One successful gmin step
Trying gmin =   1.8601E-12 Note: One successful gmin step
Trying gmin =   1.0000E-12 Note: One successful gmin step
Note: Dynamic gmin stepping completed

No. of Data Rows : 1
./schemas/simulation/MCDACDATA1.csv: No such file or directory
Doing analysis at TEMP = 27.000000 and TNOM = 27.000000

Note: include: has no value, DC 0 assumed
Note: Starting dynamic gmin stepping
Trying gmin =   1.0000E-03 Note: One successful gmin step
Trying gmin =   1.0000E-04 Note: One successful gmin step
Trying gmin =   1.0000E-05 Note: One successful gmin step
Trying gmin =   1.0000E-06 Warning: Further gmin increment
Trying gmin =   5.6234E-06 Note: One successful gmin step
Trying gmin =   2.3714E-06 Note: One successful gmin step
Trying gmin =   1.5399E-06 Note: One successful gmin step
Trying gmin =   8.0584E-07 Note: One successful gmin step
Trying gmin =   3.0505E-07 Note: One successful gmin step
Trying gmin =   7.1050E-08 Warning: Further gmin increment
Trying gmin =   2.1192E-07 Note: One successful gmin step
Trying gmin =   1.4722E-07 Warning: Further gmin increment
Trying gmin =   1.9347E-07 Note: One successful gmin step
Trying gmin =   1.6877E-07 Note: One successful gmin step
Trying gmin =   1.3750E-07 Note: One successful gmin step
Trying gmin =   1.0112E-07 Note: One successful gmin step
Trying gmin =   6.3767E-08 Note: One successful gmin step
Trying gmin =   3.1934E-08 Note: One successful gmin step
Trying gmin =   1.1317E-08 Note: One successful gmin step
Trying gmin =   2.3877E-09 Note: One successful gmin step
Trying gmin =   2.3877E-10 Note: One successful gmin step
Trying gmin =   2.3877E-11 Note: One successful gmin step
Trying gmin =   2.3877E-12 Note: One successful gmin step
Trying gmin =   1.0000E-12 Note: One successful gmin step
Note: Dynamic gmin stepping completed

No. of Data Rows : 1
./schemas/simulation/MCDACDATA1.csv: No such file or directory
Doing analysis at TEMP = 27.000000 and TNOM = 27.000000

Note: include: has no value, DC 0 assumed
Note: Starting dynamic gmin stepping
Trying gmin =   1.0000E-03 Note: One successful gmin step
Trying gmin =   1.0000E-04 Note: One successful gmin step
Trying gmin =   1.0000E-05 Note: One successful gmin step
Trying gmin =   1.0000E-06 Warning: Further gmin increment
Trying gmin =   5.6234E-06 Note: One successful gmin step
Trying gmin =   2.3714E-06 Warning: Further gmin increment
Trying gmin =   4.5316E-06 Note: One successful gmin step
Trying gmin =   3.2781E-06 Note: One successful gmin step
Trying gmin =   2.0169E-06 Warning: Further gmin increment
Trying gmin =   2.9033E-06 Note: One successful gmin step
Trying gmin =   2.4199E-06 Note: One successful gmin step
Trying gmin =   1.8414E-06 Note: One successful gmin step
Trying gmin =   1.2222E-06 Note: One successful gmin step
Trying gmin =   6.6098E-07 Note: One successful gmin step
Trying gmin =   2.6287E-07 Note: One successful gmin step
Trying gmin =   6.5927E-08 Warning: Further gmin increment
Trying gmin =   1.8602E-07 Note: One successful gmin step
Trying gmin =   1.3164E-07 Note: One successful gmin step
Trying gmin =   7.8369E-08 Note: One successful gmin step
Trying gmin =   3.5997E-08 Note: One successful gmin step
Trying gmin =   1.1206E-08 Note: One successful gmin step
Trying gmin =   1.9463E-09 Note: One successful gmin step
Trying gmin =   1.9463E-10 Note: One successful gmin step
Trying gmin =   1.9463E-11 Note: One successful gmin step
Trying gmin =   1.9463E-12 Note: One successful gmin step
Trying gmin =   1.0000E-12 Note: One successful gmin step
Note: Dynamic gmin stepping completed

No. of Data Rows : 1
./schemas/simulation/MCDACDATA1.csv: No such file or directory
Doing analysis at TEMP = 27.000000 and TNOM = 27.000000

Note: include: has no value, DC 0 assumed
Note: Starting dynamic gmin stepping
Trying gmin =   1.0000E-03 Note: One successful gmin step
Trying gmin =   1.0000E-04 Note: One successful gmin step
Trying gmin =   1.0000E-05 Note: One successful gmin step
Trying gmin =   1.0000E-06 Warning: Further gmin increment
Trying gmin =   5.6234E-06 Note: One successful gmin step
Trying gmin =   2.3714E-06 Note: One successful gmin step
Trying gmin =   1.5399E-06 Note: One successful gmin step
Trying gmin =   8.0584E-07 Note: One successful gmin step
Trying gmin =   3.0505E-07 Note: One successful gmin step
Trying gmin =   7.1050E-08 Note: One successful gmin step
Trying gmin =   3.4289E-08 Note: One successful gmin step
Trying gmin =   1.1496E-08 Note: One successful gmin step
Trying gmin =   2.2317E-09 Note: One successful gmin step
Trying gmin =   2.2317E-10 Note: One successful gmin step
Trying gmin =   2.2317E-11 Note: One successful gmin step
Trying gmin =   2.2317E-12 Note: One successful gmin step
Trying gmin =   1.0000E-12 Note: One successful gmin step
Note: Dynamic gmin stepping completed

No. of Data Rows : 1
./schemas/simulation/MCDACDATA1.csv: No such file or directory
Doing analysis at TEMP = 27.000000 and TNOM = 27.000000

Note: include: has no value, DC 0 assumed
Note: Starting dynamic gmin stepping
Trying gmin =   1.0000E-03 Note: One successful gmin step
Trying gmin =   1.0000E-04 Note: One successful gmin step
Trying gmin =   1.0000E-05 Note: One successful gmin step
Trying gmin =   1.0000E-06 Warning: Further gmin increment
Trying gmin =   5.6234E-06 Note: One successful gmin step
Trying gmin =   2.3714E-06 Note: One successful gmin step
Trying gmin =   1.0000E-06 Note: One successful gmin step
Trying gmin =   2.7384E-07 Note: One successful gmin step
Trying gmin =   3.9242E-08 Warning: Further gmin increment
Trying gmin =   1.6849E-07 Warning: Further gmin increment
Trying gmin =   2.4253E-07 Note: One successful gmin step
Trying gmin =   2.0215E-07 Note: One successful gmin step
Trying gmin =   1.6849E-07 Note: One successful gmin step
Trying gmin =   1.2821E-07 Note: One successful gmin step
Trying gmin =   8.5100E-08 Note: One successful gmin step
Trying gmin =   4.6022E-08 Note: One successful gmin step
Trying gmin =   1.8303E-08 Note: One successful gmin step
Trying gmin =   4.5902E-09 Note: One successful gmin step
Trying gmin =   5.7653E-10 Note: One successful gmin step
Trying gmin =   5.7653E-11 Note: One successful gmin step
Trying gmin =   5.7653E-12 Note: One successful gmin step
Trying gmin =   1.0000E-12 Note: One successful gmin step
Note: Dynamic gmin stepping completed

No. of Data Rows : 1
./schemas/simulation/MCDACDATA1.csv: No such file or directory
Doing analysis at TEMP = 27.000000 and TNOM = 27.000000

Note: include: has no value, DC 0 assumed
Note: Starting dynamic gmin stepping
Trying gmin =   1.0000E-03 Note: One successful gmin step
Trying gmin =   1.0000E-04 Note: One successful gmin step
Trying gmin =   1.0000E-05 Note: One successful gmin step
Trying gmin =   1.0000E-06 Warning: Further gmin increment
Trying gmin =   5.6234E-06 Note: One successful gmin step
Trying gmin =   2.3714E-06 Note: One successful gmin step
Trying gmin =   1.0000E-06 Note: One successful gmin step
Trying gmin =   2.7384E-07 Note: One successful gmin step
Trying gmin =   3.9242E-08 Warning: Further gmin increment
Trying gmin =   1.6849E-07 Note: One successful gmin step
Trying gmin =   1.3216E-07 Note: One successful gmin step
Trying gmin =   9.1810E-08 Note: One successful gmin step
Trying gmin =   5.3160E-08 Note: One successful gmin step
Trying gmin =   2.3422E-08 Note: One successful gmin step
Trying gmin =   6.8500E-09 Note: One successful gmin step
Trying gmin =   1.0834E-09 Note: One successful gmin step
Trying gmin =   1.0834E-10 Note: One successful gmin step
Trying gmin =   1.0834E-11 Note: One successful gmin step
Trying gmin =   1.0834E-12 Note: One successful gmin step
Trying gmin =   1.0000E-12 Note: One successful gmin step
Note: Dynamic gmin stepping completed

No. of Data Rows : 1
./schemas/simulation/MCDACDATA1.csv: No such file or directory
Doing analysis at TEMP = 27.000000 and TNOM = 27.000000

Note: include: has no value, DC 0 assumed
Note: Starting dynamic gmin stepping
Trying gmin =   1.0000E-03 Note: One successful gmin step
Trying gmin =   1.0000E-04 Note: One successful gmin step
Trying gmin =   1.0000E-05 Note: One successful gmin step
Trying gmin =   1.0000E-06 Warning: Further gmin increment
Trying gmin =   5.6234E-06 Note: One successful gmin step
Trying gmin =   2.3714E-06 Warning: Further gmin increment
Trying gmin =   4.5316E-06 Note: One successful gmin step
Trying gmin =   3.2781E-06 Note: One successful gmin step
Trying gmin =   2.0169E-06 Warning: Further gmin increment
Trying gmin =   2.9033E-06 Note: One successful gmin step
Trying gmin =   2.4199E-06 Note: One successful gmin step
Trying gmin =   1.8414E-06 Note: One successful gmin step
Trying gmin =   1.2222E-06 Note: One successful gmin step
Trying gmin =   6.6098E-07 Note: One successful gmin step
Trying gmin =   2.6287E-07 Note: One successful gmin step
Trying gmin =   6.5927E-08 Warning: Further gmin increment
Trying gmin =   1.8602E-07 Note: One successful gmin step
Trying gmin =   1.3164E-07 Note: One successful gmin step
Trying gmin =   7.8369E-08 Note: One successful gmin step
Trying gmin =   3.5997E-08 Note: One successful gmin step
Trying gmin =   1.1206E-08 Note: One successful gmin step
Trying gmin =   1.9463E-09 Note: One successful gmin step
Trying gmin =   1.9463E-10 Note: One successful gmin step
Trying gmin =   1.9463E-11 Note: One successful gmin step
Trying gmin =   1.9463E-12 Note: One successful gmin step
Trying gmin =   1.0000E-12 Note: One successful gmin step
Note: Dynamic gmin stepping completed

No. of Data Rows : 1
./schemas/simulation/MCDACDATA1.csv: No such file or directory
Doing analysis at TEMP = 27.000000 and TNOM = 27.000000

Note: include: has no value, DC 0 assumed
Note: Starting dynamic gmin stepping
Trying gmin =   1.0000E-03 Note: One successful gmin step
Trying gmin =   1.0000E-04 Note: One successful gmin step
Trying gmin =   1.0000E-05 Note: One successful gmin step
Trying gmin =   1.0000E-06 Warning: Further gmin increment
Trying gmin =   5.6234E-06 Note: One successful gmin step
Trying gmin =   2.3714E-06 Note: One successful gmin step
Trying gmin =   1.5399E-06 Note: One successful gmin step
Trying gmin =   8.0584E-07 Note: One successful gmin step
Trying gmin =   3.0505E-07 Note: One successful gmin step
Trying gmin =   7.1050E-08 Warning: Further gmin increment
Trying gmin =   2.1192E-07 Note: One successful gmin step
Trying gmin =   1.4722E-07 Note: One successful gmin step
Trying gmin =   1.2271E-07 Note: One successful gmin step
Trying gmin =   9.3372E-08 Note: One successful gmin step
Trying gmin =   6.1978E-08 Note: One successful gmin step
Trying gmin =   3.3517E-08 Note: One successful gmin step
Trying gmin =   1.3330E-08 Note: One successful gmin step
Trying gmin =   3.3430E-09 Note: One successful gmin step
Trying gmin =   4.1988E-10 Note: One successful gmin step
Trying gmin =   4.1988E-11 Note: One successful gmin step
Trying gmin =   4.1988E-12 Note: One successful gmin step
Trying gmin =   1.0000E-12 Note: One successful gmin step
Note: Dynamic gmin stepping completed

No. of Data Rows : 1
./schemas/simulation/MCDACDATA1.csv: No such file or directory
Doing analysis at TEMP = 27.000000 and TNOM = 27.000000

Note: include: has no value, DC 0 assumed
Note: Starting dynamic gmin stepping
Trying gmin =   1.0000E-03 Note: One successful gmin step
Trying gmin =   1.0000E-04 Note: One successful gmin step
Trying gmin =   1.0000E-05 Note: One successful gmin step
Trying gmin =   1.0000E-06 Warning: Further gmin increment
Trying gmin =   5.6234E-06 Note: One successful gmin step
Trying gmin =   2.3714E-06 Note: One successful gmin step
Trying gmin =   1.5399E-06 Note: One successful gmin step
Trying gmin =   8.0584E-07 Note: One successful gmin step
Trying gmin =   3.0505E-07 Note: One successful gmin step
Trying gmin =   7.1050E-08 Note: One successful gmin step
Trying gmin =   3.4289E-08 Note: One successful gmin step
Trying gmin =   1.1496E-08 Note: One successful gmin step
Trying gmin =   2.2317E-09 Note: One successful gmin step
Trying gmin =   2.2317E-10 Note: One successful gmin step
Trying gmin =   2.2317E-11 Note: One successful gmin step
Trying gmin =   2.2317E-12 Note: One successful gmin step
Trying gmin =   1.0000E-12 Note: One successful gmin step
Note: Dynamic gmin stepping completed

No. of Data Rows : 1
./schemas/simulation/MCDACDATA1.csv: No such file or directory
Doing analysis at TEMP = 27.000000 and TNOM = 27.000000

Note: include: has no value, DC 0 assumed
Note: Starting dynamic gmin stepping
Trying gmin =   1.0000E-03 Note: One successful gmin step
Trying gmin =   1.0000E-04 Note: One successful gmin step
Trying gmin =   1.0000E-05 Note: One successful gmin step
Trying gmin =   1.0000E-06 Warning: Further gmin increment
Trying gmin =   5.6234E-06 Note: One successful gmin step
Trying gmin =   2.3714E-06 Note: One successful gmin step
Trying gmin =   1.5399E-06 Note: One successful gmin step
Trying gmin =   8.0584E-07 Note: One successful gmin step
Trying gmin =   3.0505E-07 Note: One successful gmin step
Trying gmin =   7.1050E-08 Warning: Further gmin increment
Trying gmin =   2.1192E-07 Note: One successful gmin step
Trying gmin =   1.4722E-07 Warning: Further gmin increment
Trying gmin =   1.9347E-07 Note: One successful gmin step
Trying gmin =   1.6877E-07 Note: One successful gmin step
Trying gmin =   1.3750E-07 Note: One successful gmin step
Trying gmin =   1.0112E-07 Note: One successful gmin step
Trying gmin =   6.3767E-08 Note: One successful gmin step
Trying gmin =   3.1934E-08 Note: One successful gmin step
Trying gmin =   1.1317E-08 Note: One successful gmin step
Trying gmin =   2.3877E-09 Note: One successful gmin step
Trying gmin =   2.3877E-10 Note: One successful gmin step
Trying gmin =   2.3877E-11 Note: One successful gmin step
Trying gmin =   2.3877E-12 Note: One successful gmin step
Trying gmin =   1.0000E-12 Note: One successful gmin step
Note: Dynamic gmin stepping completed

No. of Data Rows : 1
./schemas/simulation/MCDACDATA1.csv: No such file or directory
Doing analysis at TEMP = 27.000000 and TNOM = 27.000000

Note: include: has no value, DC 0 assumed
Note: Starting dynamic gmin stepping
Trying gmin =   1.0000E-03 Note: One successful gmin step
Trying gmin =   1.0000E-04 Note: One successful gmin step
Trying gmin =   1.0000E-05 Note: One successful gmin step
Trying gmin =   1.0000E-06 Warning: Further gmin increment
Trying gmin =   5.6234E-06 Note: One successful gmin step
Trying gmin =   2.3714E-06 Note: One successful gmin step
Trying gmin =   1.5399E-06 Note: One successful gmin step
Trying gmin =   8.0584E-07 Note: One successful gmin step
Trying gmin =   3.0505E-07 Note: One successful gmin step
Trying gmin =   7.1050E-08 Warning: Further gmin increment
Trying gmin =   2.1192E-07 Note: One successful gmin step
Trying gmin =   1.4722E-07 Note: One successful gmin step
Trying gmin =   1.0227E-07 Note: One successful gmin step
Trying gmin =   5.9219E-08 Note: One successful gmin step
Trying gmin =   2.6092E-08 Note: One successful gmin step
Trying gmin =   7.6308E-09 Note: One successful gmin step
Trying gmin =   1.2069E-09 Note: One successful gmin step
Trying gmin =   1.2069E-10 Note: One successful gmin step
Trying gmin =   1.2069E-11 Note: One successful gmin step
Trying gmin =   1.2069E-12 Note: One successful gmin step
Trying gmin =   1.0000E-12 Note: One successful gmin step
Note: Dynamic gmin stepping completed

No. of Data Rows : 1
./schemas/simulation/MCDACDATA1.csv: No such file or directory
Doing analysis at TEMP = 27.000000 and TNOM = 27.000000

Note: include: has no value, DC 0 assumed
Note: Starting dynamic gmin stepping
Trying gmin =   1.0000E-03 Note: One successful gmin step
Trying gmin =   1.0000E-04 Note: One successful gmin step
Trying gmin =   1.0000E-05 Note: One successful gmin step
Trying gmin =   1.0000E-06 Warning: Further gmin increment
Trying gmin =   5.6234E-06 Note: One successful gmin step
Trying gmin =   2.3714E-06 Note: One successful gmin step
Trying gmin =   1.5399E-06 Note: One successful gmin step
Trying gmin =   8.0584E-07 Note: One successful gmin step
Trying gmin =   3.0505E-07 Note: One successful gmin step
Trying gmin =   7.1050E-08 Note: One successful gmin step
Trying gmin =   3.4289E-08 Note: One successful gmin step
Trying gmin =   1.1496E-08 Note: One successful gmin step
Trying gmin =   2.2317E-09 Note: One successful gmin step
Trying gmin =   2.2317E-10 Note: One successful gmin step
Trying gmin =   2.2317E-11 Note: One successful gmin step
Trying gmin =   2.2317E-12 Note: One successful gmin step
Trying gmin =   1.0000E-12 Note: One successful gmin step
Note: Dynamic gmin stepping completed

No. of Data Rows : 1
./schemas/simulation/MCDACDATA1.csv: No such file or directory
Doing analysis at TEMP = 27.000000 and TNOM = 27.000000

Note: include: has no value, DC 0 assumed
Note: Starting dynamic gmin stepping
Trying gmin =   1.0000E-03 Note: One successful gmin step
Trying gmin =   1.0000E-04 Note: One successful gmin step
Trying gmin =   1.0000E-05 Note: One successful gmin step
Trying gmin =   1.0000E-06 Warning: Further gmin increment
Trying gmin =   5.6234E-06 Note: One successful gmin step
Trying gmin =   2.3714E-06 Note: One successful gmin step
Trying gmin =   1.5399E-06 Note: One successful gmin step
Trying gmin =   8.0584E-07 Note: One successful gmin step
Trying gmin =   3.0505E-07 Note: One successful gmin step
Trying gmin =   7.1050E-08 Note: One successful gmin step
Trying gmin =   3.4289E-08 Note: One successful gmin step
Trying gmin =   1.1496E-08 Note: One successful gmin step
Trying gmin =   2.2317E-09 Note: One successful gmin step
Trying gmin =   2.2317E-10 Note: One successful gmin step
Trying gmin =   2.2317E-11 Note: One successful gmin step
Trying gmin =   2.2317E-12 Note: One successful gmin step
Trying gmin =   1.0000E-12 Note: One successful gmin step
Note: Dynamic gmin stepping completed

No. of Data Rows : 1
./schemas/simulation/MCDACDATA1.csv: No such file or directory
Doing analysis at TEMP = 27.000000 and TNOM = 27.000000

Note: include: has no value, DC 0 assumed
Note: Starting dynamic gmin stepping
Trying gmin =   1.0000E-03 Note: One successful gmin step
Trying gmin =   1.0000E-04 Note: One successful gmin step
Trying gmin =   1.0000E-05 Note: One successful gmin step
Trying gmin =   1.0000E-06 Warning: Further gmin increment
Trying gmin =   5.6234E-06 Note: One successful gmin step
Trying gmin =   2.3714E-06 Warning: Further gmin increment
Trying gmin =   4.5316E-06 Note: One successful gmin step
Trying gmin =   3.2781E-06 Note: One successful gmin step
Trying gmin =   2.0169E-06 Warning: Further gmin increment
Trying gmin =   2.9033E-06 Note: One successful gmin step
Trying gmin =   2.4199E-06 Note: One successful gmin step
Trying gmin =   1.8414E-06 Note: One successful gmin step
Trying gmin =   1.2222E-06 Note: One successful gmin step
Trying gmin =   6.6098E-07 Note: One successful gmin step
Trying gmin =   2.6287E-07 Note: One successful gmin step
Trying gmin =   6.5927E-08 Warning: Further gmin increment
Trying gmin =   1.8602E-07 Note: One successful gmin step
Trying gmin =   1.3164E-07 Note: One successful gmin step
Trying gmin =   7.8369E-08 Note: One successful gmin step
Trying gmin =   3.5997E-08 Note: One successful gmin step
Trying gmin =   1.1206E-08 Note: One successful gmin step
Trying gmin =   1.9463E-09 Note: One successful gmin step
Trying gmin =   1.9463E-10 Note: One successful gmin step
Trying gmin =   1.9463E-11 Note: One successful gmin step
Trying gmin =   1.9463E-12 Note: One successful gmin step
Trying gmin =   1.0000E-12 Note: One successful gmin step
Note: Dynamic gmin stepping completed

No. of Data Rows : 1
./schemas/simulation/MCDACDATA1.csv: No such file or directory
Doing analysis at TEMP = 27.000000 and TNOM = 27.000000

Note: include: has no value, DC 0 assumed
Note: Starting dynamic gmin stepping
Trying gmin =   1.0000E-03 Note: One successful gmin step
Trying gmin =   1.0000E-04 Note: One successful gmin step
Trying gmin =   1.0000E-05 Note: One successful gmin step
Trying gmin =   1.0000E-06 Warning: Further gmin increment
Trying gmin =   5.6234E-06 Note: One successful gmin step
Trying gmin =   2.3714E-06 Note: One successful gmin step
Trying gmin =   1.5399E-06 Note: One successful gmin step
Trying gmin =   8.0584E-07 Note: One successful gmin step
Trying gmin =   3.0505E-07 Note: One successful gmin step
Trying gmin =   7.1050E-08 Note: One successful gmin step
Trying gmin =   1.6548E-08 Note: One successful gmin step
Trying gmin =   1.8601E-09 Note: One successful gmin step
Trying gmin =   1.8601E-10 Note: One successful gmin step
Trying gmin =   1.8601E-11 Note: One successful gmin step
Trying gmin =   1.8601E-12 Note: One successful gmin step
Trying gmin =   1.0000E-12 Note: One successful gmin step
Note: Dynamic gmin stepping completed

No. of Data Rows : 1
./schemas/simulation/MCDACDATA1.csv: No such file or directory
Doing analysis at TEMP = 27.000000 and TNOM = 27.000000

Note: include: has no value, DC 0 assumed
Note: Starting dynamic gmin stepping
Trying gmin =   1.0000E-03 Note: One successful gmin step
Trying gmin =   1.0000E-04 Note: One successful gmin step
Trying gmin =   1.0000E-05 Note: One successful gmin step
Trying gmin =   1.0000E-06 Warning: Further gmin increment
Trying gmin =   5.6234E-06 Note: One successful gmin step
Trying gmin =   2.3714E-06 Note: One successful gmin step
Trying gmin =   1.5399E-06 Note: One successful gmin step
Trying gmin =   8.0584E-07 Note: One successful gmin step
Trying gmin =   3.0505E-07 Note: One successful gmin step
Trying gmin =   7.1050E-08 Warning: Further gmin increment
Trying gmin =   2.1192E-07 Note: One successful gmin step
Trying gmin =   1.4722E-07 Note: One successful gmin step
Trying gmin =   1.0227E-07 Note: One successful gmin step
Trying gmin =   5.9219E-08 Note: One successful gmin step
Trying gmin =   2.6092E-08 Note: One successful gmin step
Trying gmin =   7.6308E-09 Note: One successful gmin step
Trying gmin =   1.2069E-09 Note: One successful gmin step
Trying gmin =   1.2069E-10 Note: One successful gmin step
Trying gmin =   1.2069E-11 Note: One successful gmin step
Trying gmin =   1.2069E-12 Note: One successful gmin step
Trying gmin =   1.0000E-12 Note: One successful gmin step
Note: Dynamic gmin stepping completed

No. of Data Rows : 1
./schemas/simulation/MCDACDATA1.csv: No such file or directory
Doing analysis at TEMP = 27.000000 and TNOM = 27.000000

Note: include: has no value, DC 0 assumed
Note: Starting dynamic gmin stepping
Trying gmin =   1.0000E-03 Note: One successful gmin step
Trying gmin =   1.0000E-04 Note: One successful gmin step
Trying gmin =   1.0000E-05 Note: One successful gmin step
Trying gmin =   1.0000E-06 Warning: Further gmin increment
Trying gmin =   5.6234E-06 Note: One successful gmin step
Trying gmin =   2.3714E-06 Note: One successful gmin step
Trying gmin =   1.5399E-06 Note: One successful gmin step
Trying gmin =   8.0584E-07 Note: One successful gmin step
Trying gmin =   3.0505E-07 Note: One successful gmin step
Trying gmin =   7.1050E-08 Note: One successful gmin step
Trying gmin =   1.6548E-08 Note: One successful gmin step
Trying gmin =   1.8601E-09 Note: One successful gmin step
Trying gmin =   1.8601E-10 Note: One successful gmin step
Trying gmin =   1.8601E-11 Note: One successful gmin step
Trying gmin =   1.8601E-12 Note: One successful gmin step
Trying gmin =   1.0000E-12 Note: One successful gmin step
Note: Dynamic gmin stepping completed

No. of Data Rows : 1
./schemas/simulation/MCDACDATA1.csv: No such file or directory
Doing analysis at TEMP = 27.000000 and TNOM = 27.000000

Note: include: has no value, DC 0 assumed
Note: Starting dynamic gmin stepping
Trying gmin =   1.0000E-03 Note: One successful gmin step
Trying gmin =   1.0000E-04 Note: One successful gmin step
Trying gmin =   1.0000E-05 Note: One successful gmin step
Trying gmin =   1.0000E-06 Warning: Further gmin increment
Trying gmin =   5.6234E-06 Note: One successful gmin step
Trying gmin =   2.3714E-06 Note: One successful gmin step
Trying gmin =   1.5399E-06 Note: One successful gmin step
Trying gmin =   8.0584E-07 Note: One successful gmin step
Trying gmin =   3.0505E-07 Note: One successful gmin step
Trying gmin =   7.1050E-08 Warning: Further gmin increment
Trying gmin =   2.1192E-07 Note: One successful gmin step
Trying gmin =   1.4722E-07 Warning: Further gmin increment
Trying gmin =   1.9347E-07 Note: One successful gmin step
Trying gmin =   1.6877E-07 Note: One successful gmin step
Trying gmin =   1.3750E-07 Note: One successful gmin step
Trying gmin =   1.0112E-07 Note: One successful gmin step
Trying gmin =   6.3767E-08 Note: One successful gmin step
Trying gmin =   3.1934E-08 Note: One successful gmin step
Trying gmin =   1.1317E-08 Note: One successful gmin step
Trying gmin =   2.3877E-09 Note: One successful gmin step
Trying gmin =   2.3877E-10 Note: One successful gmin step
Trying gmin =   2.3877E-11 Note: One successful gmin step
Trying gmin =   2.3877E-12 Note: One successful gmin step
Trying gmin =   1.0000E-12 Note: One successful gmin step
Note: Dynamic gmin stepping completed

No. of Data Rows : 1
./schemas/simulation/MCDACDATA1.csv: No such file or directory
Doing analysis at TEMP = 27.000000 and TNOM = 27.000000

Note: include: has no value, DC 0 assumed
Note: Starting dynamic gmin stepping
Trying gmin =   1.0000E-03 Note: One successful gmin step
Trying gmin =   1.0000E-04 Note: One successful gmin step
Trying gmin =   1.0000E-05 Note: One successful gmin step
Trying gmin =   1.0000E-06 Warning: Further gmin increment
Trying gmin =   5.6234E-06 Note: One successful gmin step
Trying gmin =   2.3714E-06 Warning: Further gmin increment
Trying gmin =   4.5316E-06 Note: One successful gmin step
Trying gmin =   3.2781E-06 Note: One successful gmin step
Trying gmin =   2.0169E-06 Warning: Further gmin increment
Trying gmin =   2.9033E-06 Note: One successful gmin step
Trying gmin =   2.4199E-06 Note: One successful gmin step
Trying gmin =   1.8414E-06 Note: One successful gmin step
Trying gmin =   1.2222E-06 Note: One successful gmin step
Trying gmin =   6.6098E-07 Note: One successful gmin step
Trying gmin =   2.6287E-07 Note: One successful gmin step
Trying gmin =   6.5927E-08 Warning: Further gmin increment
Trying gmin =   1.8602E-07 Note: One successful gmin step
Trying gmin =   1.3164E-07 Note: One successful gmin step
Trying gmin =   7.8369E-08 Note: One successful gmin step
Trying gmin =   3.5997E-08 Note: One successful gmin step
Trying gmin =   1.1206E-08 Note: One successful gmin step
Trying gmin =   1.9463E-09 Note: One successful gmin step
Trying gmin =   1.9463E-10 Note: One successful gmin step
Trying gmin =   1.9463E-11 Note: One successful gmin step
Trying gmin =   1.9463E-12 Note: One successful gmin step
Trying gmin =   1.0000E-12 Note: One successful gmin step
Note: Dynamic gmin stepping completed

No. of Data Rows : 1
./schemas/simulation/MCDACDATA1.csv: No such file or directory
Doing analysis at TEMP = 27.000000 and TNOM = 27.000000

Note: include: has no value, DC 0 assumed
Note: Starting dynamic gmin stepping
Trying gmin =   1.0000E-03 Note: One successful gmin step
Trying gmin =   1.0000E-04 Note: One successful gmin step
Trying gmin =   1.0000E-05 Note: One successful gmin step
Trying gmin =   1.0000E-06 Warning: Further gmin increment
Trying gmin =   5.6234E-06 Note: One successful gmin step
Trying gmin =   2.3714E-06 Note: One successful gmin step
Trying gmin =   1.5399E-06 Note: One successful gmin step
Trying gmin =   8.0584E-07 Note: One successful gmin step
Trying gmin =   3.0505E-07 Note: One successful gmin step
Trying gmin =   7.1050E-08 Note: One successful gmin step
Trying gmin =   3.4289E-08 Note: One successful gmin step
Trying gmin =   1.1496E-08 Note: One successful gmin step
Trying gmin =   2.2317E-09 Note: One successful gmin step
Trying gmin =   2.2317E-10 Note: One successful gmin step
Trying gmin =   2.2317E-11 Note: One successful gmin step
Trying gmin =   2.2317E-12 Note: One successful gmin step
Trying gmin =   1.0000E-12 Note: One successful gmin step
Note: Dynamic gmin stepping completed

No. of Data Rows : 1
./schemas/simulation/MCDACDATA1.csv: No such file or directory
Doing analysis at TEMP = 27.000000 and TNOM = 27.000000

Note: include: has no value, DC 0 assumed
Note: Starting dynamic gmin stepping
Trying gmin =   1.0000E-03 Note: One successful gmin step
Trying gmin =   1.0000E-04 Note: One successful gmin step
Trying gmin =   1.0000E-05 Note: One successful gmin step
Trying gmin =   1.0000E-06 Warning: Further gmin increment
Trying gmin =   5.6234E-06 Note: One successful gmin step
Trying gmin =   2.3714E-06 Note: One successful gmin step
Trying gmin =   1.0000E-06 Note: One successful gmin step
Trying gmin =   2.7384E-07 Note: One successful gmin step
Trying gmin =   3.9242E-08 Warning: Further gmin increment
Trying gmin =   1.6849E-07 Warning: Further gmin increment
Trying gmin =   2.4253E-07 Note: One successful gmin step
Trying gmin =   2.0215E-07 Note: One successful gmin step
Trying gmin =   1.6849E-07 Note: One successful gmin step
Trying gmin =   1.2821E-07 Note: One successful gmin step
Trying gmin =   8.5100E-08 Note: One successful gmin step
Trying gmin =   4.6022E-08 Note: One successful gmin step
Trying gmin =   1.8303E-08 Note: One successful gmin step
Trying gmin =   4.5902E-09 Note: One successful gmin step
Trying gmin =   5.7653E-10 Note: One successful gmin step
Trying gmin =   5.7653E-11 Note: One successful gmin step
Trying gmin =   5.7653E-12 Note: One successful gmin step
Trying gmin =   1.0000E-12 Note: One successful gmin step
Note: Dynamic gmin stepping completed

No. of Data Rows : 1
./schemas/simulation/MCDACDATA1.csv: No such file or directory
Doing analysis at TEMP = 27.000000 and TNOM = 27.000000

Note: include: has no value, DC 0 assumed
Note: Starting dynamic gmin stepping
Trying gmin =   1.0000E-03 Note: One successful gmin step
Trying gmin =   1.0000E-04 Note: One successful gmin step
Trying gmin =   1.0000E-05 Note: One successful gmin step
Trying gmin =   1.0000E-06 Warning: Further gmin increment
Trying gmin =   5.6234E-06 Note: One successful gmin step
Trying gmin =   2.3714E-06 Note: One successful gmin step
Trying gmin =   1.0000E-06 Note: One successful gmin step
Trying gmin =   2.7384E-07 Note: One successful gmin step
Trying gmin =   3.9242E-08 Warning: Further gmin increment
Trying gmin =   1.6849E-07 Note: One successful gmin step
Trying gmin =   1.3216E-07 Note: One successful gmin step
Trying gmin =   9.1810E-08 Note: One successful gmin step
Trying gmin =   5.3160E-08 Note: One successful gmin step
Trying gmin =   2.3422E-08 Note: One successful gmin step
Trying gmin =   6.8500E-09 Note: One successful gmin step
Trying gmin =   1.0834E-09 Note: One successful gmin step
Trying gmin =   1.0834E-10 Note: One successful gmin step
Trying gmin =   1.0834E-11 Note: One successful gmin step
Trying gmin =   1.0834E-12 Note: One successful gmin step
Trying gmin =   1.0000E-12 Note: One successful gmin step
Note: Dynamic gmin stepping completed

No. of Data Rows : 1
./schemas/simulation/MCDACDATA1.csv: No such file or directory
Reset re-loads circuit ** sch_path: /home/lxbtlr/dtilo/schemas/mc_testbench.sch

Circuit: ** sch_path: /home/lxbtlr/dtilo/schemas/mc_testbench.sch

Doing analysis at TEMP = 27.000000 and TNOM = 27.000000

Note: include: has no value, DC 0 assumed
Note: Starting dynamic gmin stepping
Trying gmin =   1.0000E-03 Note: One successful gmin step
Trying gmin =   1.0000E-04 Note: One successful gmin step
Trying gmin =   1.0000E-05 Note: One successful gmin step
Trying gmin =   1.0000E-06 Warning: Further gmin increment
Trying gmin =   5.6234E-06 Note: One successful gmin step
Trying gmin =   2.3714E-06 Warning: Further gmin increment
Trying gmin =   4.5316E-06 Note: One successful gmin step
Trying gmin =   3.2781E-06 Note: One successful gmin step
Trying gmin =   2.0169E-06 Warning: Further gmin increment
Trying gmin =   2.9033E-06 Note: One successful gmin step
Trying gmin =   2.4199E-06 Note: One successful gmin step
Trying gmin =   1.8414E-06 Note: One successful gmin step
Trying gmin =   1.2222E-06 Note: One successful gmin step
Trying gmin =   6.6098E-07 Note: One successful gmin step
Trying gmin =   2.6287E-07 Note: One successful gmin step
Trying gmin =   6.5927E-08 Warning: Further gmin increment
Trying gmin =   1.8602E-07 Note: One successful gmin step
Trying gmin =   1.3164E-07 Note: One successful gmin step
Trying gmin =   7.8369E-08 Note: One successful gmin step
Trying gmin =   3.5997E-08 Note: One successful gmin step
Trying gmin =   1.1206E-08 Note: One successful gmin step
Trying gmin =   1.9463E-09 Note: One successful gmin step
Trying gmin =   1.9463E-10 Note: One successful gmin step
Trying gmin =   1.9463E-11 Note: One successful gmin step
Trying gmin =   1.9463E-12 Note: One successful gmin step
Trying gmin =   1.0000E-12 Note: One successful gmin step
Note: Dynamic gmin stepping completed

No. of Data Rows : 1
./schemas/simulation/MCDACDATA2.csv: No such file or directory
Doing analysis at TEMP = 27.000000 and TNOM = 27.000000

Note: include: has no value, DC 0 assumed
Note: Starting dynamic gmin stepping
Trying gmin =   1.0000E-03 Note: One successful gmin step
Trying gmin =   1.0000E-04 Note: One successful gmin step
Trying gmin =   1.0000E-05 Note: One successful gmin step
Trying gmin =   1.0000E-06 Warning: Further gmin increment
Trying gmin =   5.6234E-06 Note: One successful gmin step
Trying gmin =   2.3714E-06 Note: One successful gmin step
Trying gmin =   1.5399E-06 Note: One successful gmin step
Trying gmin =   8.0584E-07 Note: One successful gmin step
Trying gmin =   3.0505E-07 Note: One successful gmin step
Trying gmin =   7.1050E-08 Warning: Further gmin increment
Trying gmin =   2.1192E-07 Note: One successful gmin step
Trying gmin =   1.4722E-07 Note: One successful gmin step
Trying gmin =   1.2271E-07 Note: One successful gmin step
Trying gmin =   9.3372E-08 Note: One successful gmin step
Trying gmin =   6.1978E-08 Note: One successful gmin step
Trying gmin =   3.3517E-08 Note: One successful gmin step
Trying gmin =   1.3330E-08 Note: One successful gmin step
Trying gmin =   3.3430E-09 Note: One successful gmin step
Trying gmin =   4.1988E-10 Note: One successful gmin step
Trying gmin =   4.1988E-11 Note: One successful gmin step
Trying gmin =   4.1988E-12 Note: One successful gmin step
Trying gmin =   1.0000E-12 Note: One successful gmin step
Note: Dynamic gmin stepping completed

No. of Data Rows : 1
./schemas/simulation/MCDACDATA2.csv: No such file or directory
Doing analysis at TEMP = 27.000000 and TNOM = 27.000000

Note: include: has no value, DC 0 assumed
Note: Starting dynamic gmin stepping
Trying gmin =   1.0000E-03 Note: One successful gmin step
Trying gmin =   1.0000E-04 Note: One successful gmin step
Trying gmin =   1.0000E-05 Note: One successful gmin step
Trying gmin =   1.0000E-06 Warning: Further gmin increment
Trying gmin =   5.6234E-06 Note: One successful gmin step
Trying gmin =   2.3714E-06 Note: One successful gmin step
Trying gmin =   1.5399E-06 Note: One successful gmin step
Trying gmin =   8.0584E-07 Note: One successful gmin step
Trying gmin =   3.0505E-07 Note: One successful gmin step
Trying gmin =   7.1050E-08 Note: One successful gmin step
Trying gmin =   3.4289E-08 Note: One successful gmin step
Trying gmin =   1.1496E-08 Note: One successful gmin step
Trying gmin =   2.2317E-09 Note: One successful gmin step
Trying gmin =   2.2317E-10 Note: One successful gmin step
Trying gmin =   2.2317E-11 Note: One successful gmin step
Trying gmin =   2.2317E-12 Note: One successful gmin step
Trying gmin =   1.0000E-12 Note: One successful gmin step
Note: Dynamic gmin stepping completed

No. of Data Rows : 1
./schemas/simulation/MCDACDATA2.csv: No such file or directory
Doing analysis at TEMP = 27.000000 and TNOM = 27.000000

Note: include: has no value, DC 0 assumed
Note: Starting dynamic gmin stepping
Trying gmin =   1.0000E-03 Note: One successful gmin step
Trying gmin =   1.0000E-04 Note: One successful gmin step
Trying gmin =   1.0000E-05 Note: One successful gmin step
Trying gmin =   1.0000E-06 Warning: Further gmin increment
Trying gmin =   5.6234E-06 Note: One successful gmin step
Trying gmin =   2.3714E-06 Note: One successful gmin step
Trying gmin =   1.5399E-06 Note: One successful gmin step
Trying gmin =   8.0584E-07 Note: One successful gmin step
Trying gmin =   3.0505E-07 Note: One successful gmin step
Trying gmin =   7.1050E-08 Warning: Further gmin increment
Trying gmin =   2.1192E-07 Note: One successful gmin step
Trying gmin =   1.4722E-07 Warning: Further gmin increment
Trying gmin =   1.9347E-07 Note: One successful gmin step
Trying gmin =   1.6877E-07 Note: One successful gmin step
Trying gmin =   1.3750E-07 Note: One successful gmin step
Trying gmin =   1.0112E-07 Note: One successful gmin step
Trying gmin =   6.3767E-08 Note: One successful gmin step
Trying gmin =   3.1934E-08 Note: One successful gmin step
Trying gmin =   1.1317E-08 Note: One successful gmin step
Trying gmin =   2.3877E-09 Note: One successful gmin step
Trying gmin =   2.3877E-10 Note: One successful gmin step
Trying gmin =   2.3877E-11 Note: One successful gmin step
Trying gmin =   2.3877E-12 Note: One successful gmin step
Trying gmin =   1.0000E-12 Note: One successful gmin step
Note: Dynamic gmin stepping completed

No. of Data Rows : 1
./schemas/simulation/MCDACDATA2.csv: No such file or directory
Doing analysis at TEMP = 27.000000 and TNOM = 27.000000

Note: include: has no value, DC 0 assumed
Note: Starting dynamic gmin stepping
Trying gmin =   1.0000E-03 Note: One successful gmin step
Trying gmin =   1.0000E-04 Note: One successful gmin step
Trying gmin =   1.0000E-05 Note: One successful gmin step
Trying gmin =   1.0000E-06 Warning: Further gmin increment
Trying gmin =   5.6234E-06 Note: One successful gmin step
Trying gmin =   2.3714E-06 Note: One successful gmin step
Trying gmin =   1.5399E-06 Note: One successful gmin step
Trying gmin =   8.0584E-07 Note: One successful gmin step
Trying gmin =   3.0505E-07 Note: One successful gmin step
Trying gmin =   7.1050E-08 Warning: Further gmin increment
Trying gmin =   2.1192E-07 Note: One successful gmin step
Trying gmin =   1.4722E-07 Note: One successful gmin step
Trying gmin =   1.0227E-07 Note: One successful gmin step
Trying gmin =   5.9219E-08 Note: One successful gmin step
Trying gmin =   2.6092E-08 Note: One successful gmin step
Trying gmin =   7.6308E-09 Note: One successful gmin step
Trying gmin =   1.2069E-09 Note: One successful gmin step
Trying gmin =   1.2069E-10 Note: One successful gmin step
Trying gmin =   1.2069E-11 Note: One successful gmin step
Trying gmin =   1.2069E-12 Note: One successful gmin step
Trying gmin =   1.0000E-12 Note: One successful gmin step
Note: Dynamic gmin stepping completed

No. of Data Rows : 1
./schemas/simulation/MCDACDATA2.csv: No such file or directory
Doing analysis at TEMP = 27.000000 and TNOM = 27.000000

Note: include: has no value, DC 0 assumed
Note: Starting dynamic gmin stepping
Trying gmin =   1.0000E-03 Note: One successful gmin step
Trying gmin =   1.0000E-04 Note: One successful gmin step
Trying gmin =   1.0000E-05 Note: One successful gmin step
Trying gmin =   1.0000E-06 Warning: Further gmin increment
Trying gmin =   5.6234E-06 Note: One successful gmin step
Trying gmin =   2.3714E-06 Note: One successful gmin step
Trying gmin =   1.5399E-06 Note: One successful gmin step
Trying gmin =   8.0584E-07 Note: One successful gmin step
Trying gmin =   3.0505E-07 Note: One successful gmin step
Trying gmin =   7.1050E-08 Note: One successful gmin step
Trying gmin =   3.4289E-08 Note: One successful gmin step
Trying gmin =   1.1496E-08 Note: One successful gmin step
Trying gmin =   2.2317E-09 Note: One successful gmin step
Trying gmin =   2.2317E-10 Note: One successful gmin step
Trying gmin =   2.2317E-11 Note: One successful gmin step
Trying gmin =   2.2317E-12 Note: One successful gmin step
Trying gmin =   1.0000E-12 Note: One successful gmin step
Note: Dynamic gmin stepping completed

No. of Data Rows : 1
./schemas/simulation/MCDACDATA2.csv: No such file or directory
Doing analysis at TEMP = 27.000000 and TNOM = 27.000000

Note: include: has no value, DC 0 assumed
Note: Starting dynamic gmin stepping
Trying gmin =   1.0000E-03 Note: One successful gmin step
Trying gmin =   1.0000E-04 Note: One successful gmin step
Trying gmin =   1.0000E-05 Note: One successful gmin step
Trying gmin =   1.0000E-06 Warning: Further gmin increment
Trying gmin =   5.6234E-06 Note: One successful gmin step
Trying gmin =   2.3714E-06 Note: One successful gmin step
Trying gmin =   1.5399E-06 Note: One successful gmin step
Trying gmin =   8.0584E-07 Note: One successful gmin step
Trying gmin =   3.0505E-07 Note: One successful gmin step
Trying gmin =   7.1050E-08 Note: One successful gmin step
Trying gmin =   3.4289E-08 Note: One successful gmin step
Trying gmin =   1.1496E-08 Note: One successful gmin step
Trying gmin =   2.2317E-09 Note: One successful gmin step
Trying gmin =   2.2317E-10 Note: One successful gmin step
Trying gmin =   2.2317E-11 Note: One successful gmin step
Trying gmin =   2.2317E-12 Note: One successful gmin step
Trying gmin =   1.0000E-12 Note: One successful gmin step
Note: Dynamic gmin stepping completed

No. of Data Rows : 1
./schemas/simulation/MCDACDATA2.csv: No such file or directory
Doing analysis at TEMP = 27.000000 and TNOM = 27.000000

Note: include: has no value, DC 0 assumed
Note: Starting dynamic gmin stepping
Trying gmin =   1.0000E-03 Note: One successful gmin step
Trying gmin =   1.0000E-04 Note: One successful gmin step
Trying gmin =   1.0000E-05 Note: One successful gmin step
Trying gmin =   1.0000E-06 Warning: Further gmin increment
Trying gmin =   5.6234E-06 Note: One successful gmin step
Trying gmin =   2.3714E-06 Warning: Further gmin increment
Trying gmin =   4.5316E-06 Note: One successful gmin step
Trying gmin =   3.2781E-06 Note: One successful gmin step
Trying gmin =   2.0169E-06 Warning: Further gmin increment
Trying gmin =   2.9033E-06 Note: One successful gmin step
Trying gmin =   2.4199E-06 Note: One successful gmin step
Trying gmin =   1.8414E-06 Note: One successful gmin step
Trying gmin =   1.2222E-06 Note: One successful gmin step
Trying gmin =   6.6098E-07 Note: One successful gmin step
Trying gmin =   2.6287E-07 Note: One successful gmin step
Trying gmin =   6.5927E-08 Warning: Further gmin increment
Trying gmin =   1.8602E-07 Note: One successful gmin step
Trying gmin =   1.3164E-07 Note: One successful gmin step
Trying gmin =   7.8369E-08 Note: One successful gmin step
Trying gmin =   3.5997E-08 Note: One successful gmin step
Trying gmin =   1.1206E-08 Note: One successful gmin step
Trying gmin =   1.9463E-09 Note: One successful gmin step
Trying gmin =   1.9463E-10 Note: One successful gmin step
Trying gmin =   1.9463E-11 Note: One successful gmin step
Trying gmin =   1.9463E-12 Note: One successful gmin step
Trying gmin =   1.0000E-12 Note: One successful gmin step
Note: Dynamic gmin stepping completed

No. of Data Rows : 1
./schemas/simulation/MCDACDATA2.csv: No such file or directory
Doing analysis at TEMP = 27.000000 and TNOM = 27.000000

Note: include: has no value, DC 0 assumed
Note: Starting dynamic gmin stepping
Trying gmin =   1.0000E-03 Note: One successful gmin step
Trying gmin =   1.0000E-04 Note: One successful gmin step
Trying gmin =   1.0000E-05 Note: One successful gmin step
Trying gmin =   1.0000E-06 Warning: Further gmin increment
Trying gmin =   5.6234E-06 Note: One successful gmin step
Trying gmin =   2.3714E-06 Note: One successful gmin step
Trying gmin =   1.5399E-06 Note: One successful gmin step
Trying gmin =   8.0584E-07 Note: One successful gmin step
Trying gmin =   3.0505E-07 Note: One successful gmin step
Trying gmin =   7.1050E-08 Note: One successful gmin step
Trying gmin =   1.6548E-08 Note: One successful gmin step
Trying gmin =   1.8601E-09 Note: One successful gmin step
Trying gmin =   1.8601E-10 Note: One successful gmin step
Trying gmin =   1.8601E-11 Note: One successful gmin step
Trying gmin =   1.8601E-12 Note: One successful gmin step
Trying gmin =   1.0000E-12 Note: One successful gmin step
Note: Dynamic gmin stepping completed

No. of Data Rows : 1
./schemas/simulation/MCDACDATA2.csv: No such file or directory
Doing analysis at TEMP = 27.000000 and TNOM = 27.000000

Note: include: has no value, DC 0 assumed
Note: Starting dynamic gmin stepping
Trying gmin =   1.0000E-03 Note: One successful gmin step
Trying gmin =   1.0000E-04 Note: One successful gmin step
Trying gmin =   1.0000E-05 Note: One successful gmin step
Trying gmin =   1.0000E-06 Warning: Further gmin increment
Trying gmin =   5.6234E-06 Note: One successful gmin step
Trying gmin =   2.3714E-06 Note: One successful gmin step
Trying gmin =   1.5399E-06 Note: One successful gmin step
Trying gmin =   8.0584E-07 Note: One successful gmin step
Trying gmin =   3.0505E-07 Note: One successful gmin step
Trying gmin =   7.1050E-08 Warning: Further gmin increment
Trying gmin =   2.1192E-07 Note: One successful gmin step
Trying gmin =   1.4722E-07 Note: One successful gmin step
Trying gmin =   1.0227E-07 Note: One successful gmin step
Trying gmin =   5.9219E-08 Note: One successful gmin step
Trying gmin =   2.6092E-08 Note: One successful gmin step
Trying gmin =   7.6308E-09 Note: One successful gmin step
Trying gmin =   1.2069E-09 Note: One successful gmin step
Trying gmin =   1.2069E-10 Note: One successful gmin step
Trying gmin =   1.2069E-11 Note: One successful gmin step
Trying gmin =   1.2069E-12 Note: One successful gmin step
Trying gmin =   1.0000E-12 Note: One successful gmin step
Note: Dynamic gmin stepping completed

No. of Data Rows : 1
./schemas/simulation/MCDACDATA2.csv: No such file or directory
Doing analysis at TEMP = 27.000000 and TNOM = 27.000000

Note: include: has no value, DC 0 assumed
Note: Starting dynamic gmin stepping
Trying gmin =   1.0000E-03 Note: One successful gmin step
Trying gmin =   1.0000E-04 Note: One successful gmin step
Trying gmin =   1.0000E-05 Note: One successful gmin step
Trying gmin =   1.0000E-06 Warning: Further gmin increment
Trying gmin =   5.6234E-06 Note: One successful gmin step
Trying gmin =   2.3714E-06 Note: One successful gmin step
Trying gmin =   1.5399E-06 Note: One successful gmin step
Trying gmin =   8.0584E-07 Note: One successful gmin step
Trying gmin =   3.0505E-07 Note: One successful gmin step
Trying gmin =   7.1050E-08 Note: One successful gmin step
Trying gmin =   1.6548E-08 Note: One successful gmin step
Trying gmin =   1.8601E-09 Note: One successful gmin step
Trying gmin =   1.8601E-10 Note: One successful gmin step
Trying gmin =   1.8601E-11 Note: One successful gmin step
Trying gmin =   1.8601E-12 Note: One successful gmin step
Trying gmin =   1.0000E-12 Note: One successful gmin step
Note: Dynamic gmin stepping completed

No. of Data Rows : 1
./schemas/simulation/MCDACDATA2.csv: No such file or directory
Doing analysis at TEMP = 27.000000 and TNOM = 27.000000

Note: include: has no value, DC 0 assumed
Note: Starting dynamic gmin stepping
Trying gmin =   1.0000E-03 Note: One successful gmin step
Trying gmin =   1.0000E-04 Note: One successful gmin step
Trying gmin =   1.0000E-05 Note: One successful gmin step
Trying gmin =   1.0000E-06 Warning: Further gmin increment
Trying gmin =   5.6234E-06 Note: One successful gmin step
Trying gmin =   2.3714E-06 Note: One successful gmin step
Trying gmin =   1.5399E-06 Note: One successful gmin step
Trying gmin =   8.0584E-07 Note: One successful gmin step
Trying gmin =   3.0505E-07 Note: One successful gmin step
Trying gmin =   7.1050E-08 Warning: Further gmin increment
Trying gmin =   2.1192E-07 Note: One successful gmin step
Trying gmin =   1.4722E-07 Warning: Further gmin increment
Trying gmin =   1.9347E-07 Note: One successful gmin step
Trying gmin =   1.6877E-07 Note: One successful gmin step
Trying gmin =   1.3750E-07 Note: One successful gmin step
Trying gmin =   1.0112E-07 Note: One successful gmin step
Trying gmin =   6.3767E-08 Note: One successful gmin step
Trying gmin =   3.1934E-08 Note: One successful gmin step
Trying gmin =   1.1317E-08 Note: One successful gmin step
Trying gmin =   2.3877E-09 Note: One successful gmin step
Trying gmin =   2.3877E-10 Note: One successful gmin step
Trying gmin =   2.3877E-11 Note: One successful gmin step
Trying gmin =   2.3877E-12 Note: One successful gmin step
Trying gmin =   1.0000E-12 Note: One successful gmin step
Note: Dynamic gmin stepping completed

No. of Data Rows : 1
./schemas/simulation/MCDACDATA2.csv: No such file or directory
Doing analysis at TEMP = 27.000000 and TNOM = 27.000000

Note: include: has no value, DC 0 assumed
Note: Starting dynamic gmin stepping
Trying gmin =   1.0000E-03 Note: One successful gmin step
Trying gmin =   1.0000E-04 Note: One successful gmin step
Trying gmin =   1.0000E-05 Note: One successful gmin step
Trying gmin =   1.0000E-06 Warning: Further gmin increment
Trying gmin =   5.6234E-06 Note: One successful gmin step
Trying gmin =   2.3714E-06 Warning: Further gmin increment
Trying gmin =   4.5316E-06 Note: One successful gmin step
Trying gmin =   3.2781E-06 Note: One successful gmin step
Trying gmin =   2.0169E-06 Warning: Further gmin increment
Trying gmin =   2.9033E-06 Note: One successful gmin step
Trying gmin =   2.4199E-06 Note: One successful gmin step
Trying gmin =   1.8414E-06 Note: One successful gmin step
Trying gmin =   1.2222E-06 Note: One successful gmin step
Trying gmin =   6.6098E-07 Note: One successful gmin step
Trying gmin =   2.6287E-07 Note: One successful gmin step
Trying gmin =   6.5927E-08 Warning: Further gmin increment
Trying gmin =   1.8602E-07 Note: One successful gmin step
Trying gmin =   1.3164E-07 Note: One successful gmin step
Trying gmin =   7.8369E-08 Note: One successful gmin step
Trying gmin =   3.5997E-08 Note: One successful gmin step
Trying gmin =   1.1206E-08 Note: One successful gmin step
Trying gmin =   1.9463E-09 Note: One successful gmin step
Trying gmin =   1.9463E-10 Note: One successful gmin step
Trying gmin =   1.9463E-11 Note: One successful gmin step
Trying gmin =   1.9463E-12 Note: One successful gmin step
Trying gmin =   1.0000E-12 Note: One successful gmin step
Note: Dynamic gmin stepping completed

No. of Data Rows : 1
./schemas/simulation/MCDACDATA2.csv: No such file or directory
Doing analysis at TEMP = 27.000000 and TNOM = 27.000000

Note: include: has no value, DC 0 assumed
Note: Starting dynamic gmin stepping
Trying gmin =   1.0000E-03 Note: One successful gmin step
Trying gmin =   1.0000E-04 Note: One successful gmin step
Trying gmin =   1.0000E-05 Note: One successful gmin step
Trying gmin =   1.0000E-06 Warning: Further gmin increment
Trying gmin =   5.6234E-06 Note: One successful gmin step
Trying gmin =   2.3714E-06 Note: One successful gmin step
Trying gmin =   1.5399E-06 Note: One successful gmin step
Trying gmin =   8.0584E-07 Note: One successful gmin step
Trying gmin =   3.0505E-07 Note: One successful gmin step
Trying gmin =   7.1050E-08 Note: One successful gmin step
Trying gmin =   3.4289E-08 Note: One successful gmin step
Trying gmin =   1.1496E-08 Note: One successful gmin step
Trying gmin =   2.2317E-09 Note: One successful gmin step
Trying gmin =   2.2317E-10 Note: One successful gmin step
Trying gmin =   2.2317E-11 Note: One successful gmin step
Trying gmin =   2.2317E-12 Note: One successful gmin step
Trying gmin =   1.0000E-12 Note: One successful gmin step
Note: Dynamic gmin stepping completed

No. of Data Rows : 1
./schemas/simulation/MCDACDATA2.csv: No such file or directory
Doing analysis at TEMP = 27.000000 and TNOM = 27.000000

Note: include: has no value, DC 0 assumed
Note: Starting dynamic gmin stepping
Trying gmin =   1.0000E-03 Note: One successful gmin step
Trying gmin =   1.0000E-04 Note: One successful gmin step
Trying gmin =   1.0000E-05 Note: One successful gmin step
Trying gmin =   1.0000E-06 Warning: Further gmin increment
Trying gmin =   5.6234E-06 Note: One successful gmin step
Trying gmin =   2.3714E-06 Note: One successful gmin step
Trying gmin =   1.0000E-06 Note: One successful gmin step
Trying gmin =   2.7384E-07 Note: One successful gmin step
Trying gmin =   3.9242E-08 Warning: Further gmin increment
Trying gmin =   1.6849E-07 Warning: Further gmin increment
Trying gmin =   2.4253E-07 Note: One successful gmin step
Trying gmin =   2.0215E-07 Note: One successful gmin step
Trying gmin =   1.6849E-07 Note: One successful gmin step
Trying gmin =   1.2821E-07 Note: One successful gmin step
Trying gmin =   8.5100E-08 Note: One successful gmin step
Trying gmin =   4.6022E-08 Note: One successful gmin step
Trying gmin =   1.8303E-08 Note: One successful gmin step
Trying gmin =   4.5902E-09 Note: One successful gmin step
Trying gmin =   5.7653E-10 Note: One successful gmin step
Trying gmin =   5.7653E-11 Note: One successful gmin step
Trying gmin =   5.7653E-12 Note: One successful gmin step
Trying gmin =   1.0000E-12 Note: One successful gmin step
Note: Dynamic gmin stepping completed

No. of Data Rows : 1
./schemas/simulation/MCDACDATA2.csv: No such file or directory
Doing analysis at TEMP = 27.000000 and TNOM = 27.000000

Note: include: has no value, DC 0 assumed
Note: Starting dynamic gmin stepping
Trying gmin =   1.0000E-03 Note: One successful gmin step
Trying gmin =   1.0000E-04 Note: One successful gmin step
Trying gmin =   1.0000E-05 Note: One successful gmin step
Trying gmin =   1.0000E-06 Warning: Further gmin increment
Trying gmin =   5.6234E-06 Note: One successful gmin step
Trying gmin =   2.3714E-06 Note: One successful gmin step
Trying gmin =   1.0000E-06 Note: One successful gmin step
Trying gmin =   2.7384E-07 Note: One successful gmin step
Trying gmin =   3.9242E-08 Warning: Further gmin increment
Trying gmin =   1.6849E-07 Note: One successful gmin step
Trying gmin =   1.3216E-07 Note: One successful gmin step
Trying gmin =   9.1810E-08 Note: One successful gmin step
Trying gmin =   5.3160E-08 Note: One successful gmin step
Trying gmin =   2.3422E-08 Note: One successful gmin step
Trying gmin =   6.8500E-09 Note: One successful gmin step
Trying gmin =   1.0834E-09 Note: One successful gmin step
Trying gmin =   1.0834E-10 Note: One successful gmin step
Trying gmin =   1.0834E-11 Note: One successful gmin step
Trying gmin =   1.0834E-12 Note: One successful gmin step
Trying gmin =   1.0000E-12 Note: One successful gmin step
Note: Dynamic gmin stepping completed

No. of Data Rows : 1
./schemas/simulation/MCDACDATA2.csv: No such file or directory
Doing analysis at TEMP = 27.000000 and TNOM = 27.000000

Note: include: has no value, DC 0 assumed
Note: Starting dynamic gmin stepping
Trying gmin =   1.0000E-03 Note: One successful gmin step
Trying gmin =   1.0000E-04 Note: One successful gmin step
Trying gmin =   1.0000E-05 Note: One successful gmin step
Trying gmin =   1.0000E-06 Warning: Further gmin increment
Trying gmin =   5.6234E-06 Note: One successful gmin step
Trying gmin =   2.3714E-06 Warning: Further gmin increment
Trying gmin =   4.5316E-06 Note: One successful gmin step
Trying gmin =   3.2781E-06 Note: One successful gmin step
Trying gmin =   2.0169E-06 Warning: Further gmin increment
Trying gmin =   2.9033E-06 Note: One successful gmin step
Trying gmin =   2.4199E-06 Note: One successful gmin step
Trying gmin =   1.8414E-06 Note: One successful gmin step
Trying gmin =   1.2222E-06 Note: One successful gmin step
Trying gmin =   6.6098E-07 Note: One successful gmin step
Trying gmin =   2.6287E-07 Note: One successful gmin step
Trying gmin =   6.5927E-08 Warning: Further gmin increment
Trying gmin =   1.8602E-07 Note: One successful gmin step
Trying gmin =   1.3164E-07 Note: One successful gmin step
Trying gmin =   7.8369E-08 Note: One successful gmin step
Trying gmin =   3.5997E-08 Note: One successful gmin step
Trying gmin =   1.1206E-08 Note: One successful gmin step
Trying gmin =   1.9463E-09 Note: One successful gmin step
Trying gmin =   1.9463E-10 Note: One successful gmin step
Trying gmin =   1.9463E-11 Note: One successful gmin step
Trying gmin =   1.9463E-12 Note: One successful gmin step
Trying gmin =   1.0000E-12 Note: One successful gmin step
Note: Dynamic gmin stepping completed

No. of Data Rows : 1
./schemas/simulation/MCDACDATA2.csv: No such file or directory
Doing analysis at TEMP = 27.000000 and TNOM = 27.000000

Note: include: has no value, DC 0 assumed
Note: Starting dynamic gmin stepping
Trying gmin =   1.0000E-03 Note: One successful gmin step
Trying gmin =   1.0000E-04 Note: One successful gmin step
Trying gmin =   1.0000E-05 Note: One successful gmin step
Trying gmin =   1.0000E-06 Warning: Further gmin increment
Trying gmin =   5.6234E-06 Note: One successful gmin step
Trying gmin =   2.3714E-06 Note: One successful gmin step
Trying gmin =   1.5399E-06 Note: One successful gmin step
Trying gmin =   8.0584E-07 Note: One successful gmin step
Trying gmin =   3.0505E-07 Note: One successful gmin step
Trying gmin =   7.1050E-08 Warning: Further gmin increment
Trying gmin =   2.1192E-07 Note: One successful gmin step
Trying gmin =   1.4722E-07 Note: One successful gmin step
Trying gmin =   1.2271E-07 Note: One successful gmin step
Trying gmin =   9.3372E-08 Note: One successful gmin step
Trying gmin =   6.1978E-08 Note: One successful gmin step
Trying gmin =   3.3517E-08 Note: One successful gmin step
Trying gmin =   1.3330E-08 Note: One successful gmin step
Trying gmin =   3.3430E-09 Note: One successful gmin step
Trying gmin =   4.1988E-10 Note: One successful gmin step
Trying gmin =   4.1988E-11 Note: One successful gmin step
Trying gmin =   4.1988E-12 Note: One successful gmin step
Trying gmin =   1.0000E-12 Note: One successful gmin step
Note: Dynamic gmin stepping completed

No. of Data Rows : 1
./schemas/simulation/MCDACDATA2.csv: No such file or directory
Doing analysis at TEMP = 27.000000 and TNOM = 27.000000

Note: include: has no value, DC 0 assumed
Note: Starting dynamic gmin stepping
Trying gmin =   1.0000E-03 Note: One successful gmin step
Trying gmin =   1.0000E-04 Note: One successful gmin step
Trying gmin =   1.0000E-05 Note: One successful gmin step
Trying gmin =   1.0000E-06 Warning: Further gmin increment
Trying gmin =   5.6234E-06 Note: One successful gmin step
Trying gmin =   2.3714E-06 Note: One successful gmin step
Trying gmin =   1.5399E-06 Note: One successful gmin step
Trying gmin =   8.0584E-07 Note: One successful gmin step
Trying gmin =   3.0505E-07 Note: One successful gmin step
Trying gmin =   7.1050E-08 Note: One successful gmin step
Trying gmin =   3.4289E-08 Note: One successful gmin step
Trying gmin =   1.1496E-08 Note: One successful gmin step
Trying gmin =   2.2317E-09 Note: One successful gmin step
Trying gmin =   2.2317E-10 Note: One successful gmin step
Trying gmin =   2.2317E-11 Note: One successful gmin step
Trying gmin =   2.2317E-12 Note: One successful gmin step
Trying gmin =   1.0000E-12 Note: One successful gmin step
Note: Dynamic gmin stepping completed

No. of Data Rows : 1
./schemas/simulation/MCDACDATA2.csv: No such file or directory
Doing analysis at TEMP = 27.000000 and TNOM = 27.000000

Note: include: has no value, DC 0 assumed
Note: Starting dynamic gmin stepping
Trying gmin =   1.0000E-03 Note: One successful gmin step
Trying gmin =   1.0000E-04 Note: One successful gmin step
Trying gmin =   1.0000E-05 Note: One successful gmin step
Trying gmin =   1.0000E-06 Warning: Further gmin increment
Trying gmin =   5.6234E-06 Note: One successful gmin step
Trying gmin =   2.3714E-06 Note: One successful gmin step
Trying gmin =   1.5399E-06 Note: One successful gmin step
Trying gmin =   8.0584E-07 Note: One successful gmin step
Trying gmin =   3.0505E-07 Note: One successful gmin step
Trying gmin =   7.1050E-08 Warning: Further gmin increment
Trying gmin =   2.1192E-07 Note: One successful gmin step
Trying gmin =   1.4722E-07 Warning: Further gmin increment
Trying gmin =   1.9347E-07 Note: One successful gmin step
Trying gmin =   1.6877E-07 Note: One successful gmin step
Trying gmin =   1.3750E-07 Note: One successful gmin step
Trying gmin =   1.0112E-07 Note: One successful gmin step
Trying gmin =   6.3767E-08 Note: One successful gmin step
Trying gmin =   3.1934E-08 Note: One successful gmin step
Trying gmin =   1.1317E-08 Note: One successful gmin step
Trying gmin =   2.3877E-09 Note: One successful gmin step
Trying gmin =   2.3877E-10 Note: One successful gmin step
Trying gmin =   2.3877E-11 Note: One successful gmin step
Trying gmin =   2.3877E-12 Note: One successful gmin step
Trying gmin =   1.0000E-12 Note: One successful gmin step
Note: Dynamic gmin stepping completed

No. of Data Rows : 1
./schemas/simulation/MCDACDATA2.csv: No such file or directory
Doing analysis at TEMP = 27.000000 and TNOM = 27.000000

Note: include: has no value, DC 0 assumed
Note: Starting dynamic gmin stepping
Trying gmin =   1.0000E-03 Note: One successful gmin step
Trying gmin =   1.0000E-04 Note: One successful gmin step
Trying gmin =   1.0000E-05 Note: One successful gmin step
Trying gmin =   1.0000E-06 Warning: Further gmin increment
Trying gmin =   5.6234E-06 Note: One successful gmin step
Trying gmin =   2.3714E-06 Note: One successful gmin step
Trying gmin =   1.5399E-06 Note: One successful gmin step
Trying gmin =   8.0584E-07 Note: One successful gmin step
Trying gmin =   3.0505E-07 Note: One successful gmin step
Trying gmin =   7.1050E-08 Warning: Further gmin increment
Trying gmin =   2.1192E-07 Note: One successful gmin step
Trying gmin =   1.4722E-07 Note: One successful gmin step
Trying gmin =   1.0227E-07 Note: One successful gmin step
Trying gmin =   5.9219E-08 Note: One successful gmin step
Trying gmin =   2.6092E-08 Note: One successful gmin step
Trying gmin =   7.6308E-09 Note: One successful gmin step
Trying gmin =   1.2069E-09 Note: One successful gmin step
Trying gmin =   1.2069E-10 Note: One successful gmin step
Trying gmin =   1.2069E-11 Note: One successful gmin step
Trying gmin =   1.2069E-12 Note: One successful gmin step
Trying gmin =   1.0000E-12 Note: One successful gmin step
Note: Dynamic gmin stepping completed

No. of Data Rows : 1
./schemas/simulation/MCDACDATA2.csv: No such file or directory
Doing analysis at TEMP = 27.000000 and TNOM = 27.000000

Note: include: has no value, DC 0 assumed
Note: Starting dynamic gmin stepping
Trying gmin =   1.0000E-03 Note: One successful gmin step
Trying gmin =   1.0000E-04 Note: One successful gmin step
Trying gmin =   1.0000E-05 Note: One successful gmin step
Trying gmin =   1.0000E-06 Warning: Further gmin increment
Trying gmin =   5.6234E-06 Note: One successful gmin step
Trying gmin =   2.3714E-06 Note: One successful gmin step
Trying gmin =   1.5399E-06 Note: One successful gmin step
Trying gmin =   8.0584E-07 Note: One successful gmin step
Trying gmin =   3.0505E-07 Note: One successful gmin step
Trying gmin =   7.1050E-08 Note: One successful gmin step
Trying gmin =   3.4289E-08 Note: One successful gmin step
Trying gmin =   1.1496E-08 Note: One successful gmin step
Trying gmin =   2.2317E-09 Note: One successful gmin step
Trying gmin =   2.2317E-10 Note: One successful gmin step
Trying gmin =   2.2317E-11 Note: One successful gmin step
Trying gmin =   2.2317E-12 Note: One successful gmin step
Trying gmin =   1.0000E-12 Note: One successful gmin step
Note: Dynamic gmin stepping completed

No. of Data Rows : 1
./schemas/simulation/MCDACDATA2.csv: No such file or directory
Doing analysis at TEMP = 27.000000 and TNOM = 27.000000

Note: include: has no value, DC 0 assumed
Note: Starting dynamic gmin stepping
Trying gmin =   1.0000E-03 Note: One successful gmin step
Trying gmin =   1.0000E-04 Note: One successful gmin step
Trying gmin =   1.0000E-05 Note: One successful gmin step
Trying gmin =   1.0000E-06 Warning: Further gmin increment
Trying gmin =   5.6234E-06 Note: One successful gmin step
Trying gmin =   2.3714E-06 Note: One successful gmin step
[...]
Trying gmin =   1.0000E-06 Warning: Further gmin increment
Trying gmin =   5.6234E-06 Note: One successful gmin step
Trying gmin =   2.3714E-06 Note: One successful gmin step
Trying gmin =   1.5399E-06 Note: One successful gmin step
Trying gmin =   8.0584E-07 Note: One successful gmin step
Trying gmin =   3.0505E-07 Note: One successful gmin step
Trying gmin =   7.1050E-08 Note: One successful gmin step
Trying gmin =   3.4289E-08 Note: One successful gmin step
Trying gmin =   1.1496E-08 Note: One successful gmin step
Trying gmin =   2.2317E-09 Note: One successful gmin step
Trying gmin =   2.2317E-10 Note: One successful gmin step
Trying gmin =   2.2317E-11 Note: One successful gmin step
Trying gmin =   2.2317E-12 Note: One successful gmin step
Trying gmin =   1.0000E-12 Note: One successful gmin step
Note: Dynamic gmin stepping completed

No. of Data Rows : 1
./schemas/simulation/MCDACDATA10.csv: No such file or directory
Doing analysis at TEMP = 27.000000 and TNOM = 27.000000

Note: include: has no value, DC 0 assumed
Note: Starting dynamic gmin stepping
Trying gmin =   1.0000E-03 Note: One successful gmin step
Trying gmin =   1.0000E-04 Note: One successful gmin step
Trying gmin =   1.0000E-05 Note: One successful gmin step
Trying gmin =   1.0000E-06 Warning: Further gmin increment
Trying gmin =   5.6234E-06 Note: One successful gmin step
Trying gmin =   2.3714E-06 Note: One successful gmin step
Trying gmin =   1.5399E-06 Note: One successful gmin step
Trying gmin =   8.0584E-07 Note: One successful gmin step
Trying gmin =   3.0505E-07 Note: One successful gmin step
Trying gmin =   7.1050E-08 Warning: Further gmin increment
Trying gmin =   2.1192E-07 Note: One successful gmin step
Trying gmin =   1.4722E-07 Warning: Further gmin increment
Trying gmin =   1.9347E-07 Note: One successful gmin step
Trying gmin =   1.6877E-07 Note: One successful gmin step
Trying gmin =   1.3750E-07 Note: One successful gmin step
Trying gmin =   1.0112E-07 Note: One successful gmin step
Trying gmin =   6.3767E-08 Note: One successful gmin step
Trying gmin =   3.1934E-08 Note: One successful gmin step
Trying gmin =   1.1317E-08 Note: One successful gmin step
Trying gmin =   2.3877E-09 Note: One successful gmin step
Trying gmin =   2.3877E-10 Note: One successful gmin step
Trying gmin =   2.3877E-11 Note: One successful gmin step
Trying gmin =   2.3877E-12 Note: One successful gmin step
Trying gmin =   1.0000E-12 Note: One successful gmin step
Note: Dynamic gmin stepping completed

No. of Data Rows : 1
./schemas/simulation/MCDACDATA10.csv: No such file or directory
Doing analysis at TEMP = 27.000000 and TNOM = 27.000000

Note: include: has no value, DC 0 assumed
Note: Starting dynamic gmin stepping
Trying gmin =   1.0000E-03 Note: One successful gmin step
Trying gmin =   1.0000E-04 Note: One successful gmin step
Trying gmin =   1.0000E-05 Note: One successful gmin step
Trying gmin =   1.0000E-06 Warning: Further gmin increment
Trying gmin =   5.6234E-06 Note: One successful gmin step
Trying gmin =   2.3714E-06 Note: One successful gmin step
Trying gmin =   1.5399E-06 Note: One successful gmin step
Trying gmin =   8.0584E-07 Note: One successful gmin step
Trying gmin =   3.0505E-07 Note: One successful gmin step
Trying gmin =   7.1050E-08 Warning: Further gmin increment
Trying gmin =   2.1192E-07 Note: One successful gmin step
Trying gmin =   1.4722E-07 Note: One successful gmin step
Trying gmin =   1.0227E-07 Note: One successful gmin step
Trying gmin =   5.9219E-08 Note: One successful gmin step
Trying gmin =   2.6092E-08 Note: One successful gmin step
Trying gmin =   7.6308E-09 Note: One successful gmin step
Trying gmin =   1.2069E-09 Note: One successful gmin step
Trying gmin =   1.2069E-10 Note: One successful gmin step
Trying gmin =   1.2069E-11 Note: One successful gmin step
Trying gmin =   1.2069E-12 Note: One successful gmin step
Trying gmin =   1.0000E-12 Note: One successful gmin step
Note: Dynamic gmin stepping completed

No. of Data Rows : 1
./schemas/simulation/MCDACDATA10.csv: No such file or directory
Doing analysis at TEMP = 27.000000 and TNOM = 27.000000

Note: include: has no value, DC 0 assumed
Note: Starting dynamic gmin stepping
Trying gmin =   1.0000E-03 Note: One successful gmin step
Trying gmin =   1.0000E-04 Note: One successful gmin step
Trying gmin =   1.0000E-05 Note: One successful gmin step
Trying gmin =   1.0000E-06 Warning: Further gmin increment
Trying gmin =   5.6234E-06 Note: One successful gmin step
Trying gmin =   2.3714E-06 Note: One successful gmin step
Trying gmin =   1.5399E-06 Note: One successful gmin step
Trying gmin =   8.0584E-07 Note: One successful gmin step
Trying gmin =   3.0505E-07 Note: One successful gmin step
Trying gmin =   7.1050E-08 Note: One successful gmin step
Trying gmin =   3.4289E-08 Note: One successful gmin step
Trying gmin =   1.1496E-08 Note: One successful gmin step
Trying gmin =   2.2317E-09 Note: One successful gmin step
Trying gmin =   2.2317E-10 Note: One successful gmin step
Trying gmin =   2.2317E-11 Note: One successful gmin step
Trying gmin =   2.2317E-12 Note: One successful gmin step
Trying gmin =   1.0000E-12 Note: One successful gmin step
Note: Dynamic gmin stepping completed

No. of Data Rows : 1
./schemas/simulation/MCDACDATA10.csv: No such file or directory
Doing analysis at TEMP = 27.000000 and TNOM = 27.000000

Note: include: has no value, DC 0 assumed
Note: Starting dynamic gmin stepping
Trying gmin =   1.0000E-03 Note: One successful gmin step
Trying gmin =   1.0000E-04 Note: One successful gmin step
Trying gmin =   1.0000E-05 Note: One successful gmin step
Trying gmin =   1.0000E-06 Warning: Further gmin increment
Trying gmin =   5.6234E-06 Note: One successful gmin step
Trying gmin =   2.3714E-06 Note: One successful gmin step
Trying gmin =   1.5399E-06 Note: One successful gmin step
Trying gmin =   8.0584E-07 Note: One successful gmin step
Trying gmin =   3.0505E-07 Note: One successful gmin step
Trying gmin =   7.1050E-08 Note: One successful gmin step
Trying gmin =   3.4289E-08 Note: One successful gmin step
Trying gmin =   1.1496E-08 Note: One successful gmin step
Trying gmin =   2.2317E-09 Note: One successful gmin step
Trying gmin =   2.2317E-10 Note: One successful gmin step
Trying gmin =   2.2317E-11 Note: One successful gmin step
Trying gmin =   2.2317E-12 Note: One successful gmin step
Trying gmin =   1.0000E-12 Note: One successful gmin step
Note: Dynamic gmin stepping completed

No. of Data Rows : 1
./schemas/simulation/MCDACDATA10.csv: No such file or directory
Doing analysis at TEMP = 27.000000 and TNOM = 27.000000

Note: include: has no value, DC 0 assumed
Note: Starting dynamic gmin stepping
Trying gmin =   1.0000E-03 Note: One successful gmin step
Trying gmin =   1.0000E-04 Note: One successful gmin step
Trying gmin =   1.0000E-05 Note: One successful gmin step
Trying gmin =   1.0000E-06 Warning: Further gmin increment
Trying gmin =   5.6234E-06 Note: One successful gmin step
Trying gmin =   2.3714E-06 Warning: Further gmin increment
Trying gmin =   4.5316E-06 Note: One successful gmin step
Trying gmin =   3.2781E-06 Note: One successful gmin step
Trying gmin =   2.0169E-06 Warning: Further gmin increment
Trying gmin =   2.9033E-06 Note: One successful gmin step
Trying gmin =   2.4199E-06 Note: One successful gmin step
Trying gmin =   1.8414E-06 Note: One successful gmin step
Trying gmin =   1.2222E-06 Note: One successful gmin step
Trying gmin =   6.6098E-07 Note: One successful gmin step
Trying gmin =   2.6287E-07 Note: One successful gmin step
Trying gmin =   6.5927E-08 Warning: Further gmin increment
Trying gmin =   1.8602E-07 Note: One successful gmin step
Trying gmin =   1.3164E-07 Note: One successful gmin step
Trying gmin =   7.8369E-08 Note: One successful gmin step
Trying gmin =   3.5997E-08 Note: One successful gmin step
Trying gmin =   1.1206E-08 Note: One successful gmin step
Trying gmin =   1.9463E-09 Note: One successful gmin step
Trying gmin =   1.9463E-10 Note: One successful gmin step
Trying gmin =   1.9463E-11 Note: One successful gmin step
Trying gmin =   1.9463E-12 Note: One successful gmin step
Trying gmin =   1.0000E-12 Note: One successful gmin step
Note: Dynamic gmin stepping completed

No. of Data Rows : 1
./schemas/simulation/MCDACDATA10.csv: No such file or directory
Doing analysis at TEMP = 27.000000 and TNOM = 27.000000

Note: include: has no value, DC 0 assumed
Note: Starting dynamic gmin stepping
Trying gmin =   1.0000E-03 Note: One successful gmin step
Trying gmin =   1.0000E-04 Note: One successful gmin step
Trying gmin =   1.0000E-05 Note: One successful gmin step
Trying gmin =   1.0000E-06 Warning: Further gmin increment
Trying gmin =   5.6234E-06 Note: One successful gmin step
Trying gmin =   2.3714E-06 Note: One successful gmin step
Trying gmin =   1.5399E-06 Note: One successful gmin step
Trying gmin =   8.0584E-07 Note: One successful gmin step
Trying gmin =   3.0505E-07 Note: One successful gmin step
Trying gmin =   7.1050E-08 Note: One successful gmin step
Trying gmin =   1.6548E-08 Note: One successful gmin step
Trying gmin =   1.8601E-09 Note: One successful gmin step
Trying gmin =   1.8601E-10 Note: One successful gmin step
Trying gmin =   1.8601E-11 Note: One successful gmin step
Trying gmin =   1.8601E-12 Note: One successful gmin step
Trying gmin =   1.0000E-12 Note: One successful gmin step
Note: Dynamic gmin stepping completed

No. of Data Rows : 1
./schemas/simulation/MCDACDATA10.csv: No such file or directory
Doing analysis at TEMP = 27.000000 and TNOM = 27.000000

Note: include: has no value, DC 0 assumed
Note: Starting dynamic gmin stepping
Trying gmin =   1.0000E-03 Note: One successful gmin step
Trying gmin =   1.0000E-04 Note: One successful gmin step
Trying gmin =   1.0000E-05 Note: One successful gmin step
Trying gmin =   1.0000E-06 Warning: Further gmin increment
Trying gmin =   5.6234E-06 Note: One successful gmin step
Trying gmin =   2.3714E-06 Note: One successful gmin step
Trying gmin =   1.5399E-06 Note: One successful gmin step
Trying gmin =   8.0584E-07 Note: One successful gmin step
Trying gmin =   3.0505E-07 Note: One successful gmin step
Trying gmin =   7.1050E-08 Warning: Further gmin increment
Trying gmin =   2.1192E-07 Note: One successful gmin step
Trying gmin =   1.4722E-07 Note: One successful gmin step
Trying gmin =   1.0227E-07 Note: One successful gmin step
Trying gmin =   5.9219E-08 Note: One successful gmin step
Trying gmin =   2.6092E-08 Note: One successful gmin step
Trying gmin =   7.6308E-09 Note: One successful gmin step
Trying gmin =   1.2069E-09 Note: One successful gmin step
Trying gmin =   1.2069E-10 Note: One successful gmin step
Trying gmin =   1.2069E-11 Note: One successful gmin step
Trying gmin =   1.2069E-12 Note: One successful gmin step
Trying gmin =   1.0000E-12 Note: One successful gmin step
Note: Dynamic gmin stepping completed

No. of Data Rows : 1
./schemas/simulation/MCDACDATA10.csv: No such file or directory
Doing analysis at TEMP = 27.000000 and TNOM = 27.000000

Note: include: has no value, DC 0 assumed
Note: Starting dynamic gmin stepping
Trying gmin =   1.0000E-03 Note: One successful gmin step
Trying gmin =   1.0000E-04 Note: One successful gmin step
Trying gmin =   1.0000E-05 Note: One successful gmin step
Trying gmin =   1.0000E-06 Warning: Further gmin increment
Trying gmin =   5.6234E-06 Note: One successful gmin step
Trying gmin =   2.3714E-06 Note: One successful gmin step
Trying gmin =   1.5399E-06 Note: One successful gmin step
Trying gmin =   8.0584E-07 Note: One successful gmin step
Trying gmin =   3.0505E-07 Note: One successful gmin step
Trying gmin =   7.1050E-08 Note: One successful gmin step
Trying gmin =   1.6548E-08 Note: One successful gmin step
Trying gmin =   1.8601E-09 Note: One successful gmin step
Trying gmin =   1.8601E-10 Note: One successful gmin step
Trying gmin =   1.8601E-11 Note: One successful gmin step
Trying gmin =   1.8601E-12 Note: One successful gmin step
Trying gmin =   1.0000E-12 Note: One successful gmin step
Note: Dynamic gmin stepping completed

No. of Data Rows : 1
./schemas/simulation/MCDACDATA10.csv: No such file or directory
Doing analysis at TEMP = 27.000000 and TNOM = 27.000000

Note: include: has no value, DC 0 assumed
Note: Starting dynamic gmin stepping
Trying gmin =   1.0000E-03 Note: One successful gmin step
Trying gmin =   1.0000E-04 Note: One successful gmin step
Trying gmin =   1.0000E-05 Note: One successful gmin step
Trying gmin =   1.0000E-06 Warning: Further gmin increment
Trying gmin =   5.6234E-06 Note: One successful gmin step
Trying gmin =   2.3714E-06 Note: One successful gmin step
Trying gmin =   1.5399E-06 Note: One successful gmin step
Trying gmin =   8.0584E-07 Note: One successful gmin step
Trying gmin =   3.0505E-07 Note: One successful gmin step
Trying gmin =   7.1050E-08 Warning: Further gmin increment
Trying gmin =   2.1192E-07 Note: One successful gmin step
Trying gmin =   1.4722E-07 Warning: Further gmin increment
Trying gmin =   1.9347E-07 Note: One successful gmin step
Trying gmin =   1.6877E-07 Note: One successful gmin step
Trying gmin =   1.3750E-07 Note: One successful gmin step
Trying gmin =   1.0112E-07 Note: One successful gmin step
Trying gmin =   6.3767E-08 Note: One successful gmin step
Trying gmin =   3.1934E-08 Note: One successful gmin step
Trying gmin =   1.1317E-08 Note: One successful gmin step
Trying gmin =   2.3877E-09 Note: One successful gmin step
Trying gmin =   2.3877E-10 Note: One successful gmin step
Trying gmin =   2.3877E-11 Note: One successful gmin step
Trying gmin =   2.3877E-12 Note: One successful gmin step
Trying gmin =   1.0000E-12 Note: One successful gmin step
Note: Dynamic gmin stepping completed

No. of Data Rows : 1
./schemas/simulation/MCDACDATA10.csv: No such file or directory
Doing analysis at TEMP = 27.000000 and TNOM = 27.000000

Note: include: has no value, DC 0 assumed
Note: Starting dynamic gmin stepping
Trying gmin =   1.0000E-03 Note: One successful gmin step
Trying gmin =   1.0000E-04 Note: One successful gmin step
Trying gmin =   1.0000E-05 Note: One successful gmin step
Trying gmin =   1.0000E-06 Warning: Further gmin increment
Trying gmin =   5.6234E-06 Note: One successful gmin step
Trying gmin =   2.3714E-06 Warning: Further gmin increment
Trying gmin =   4.5316E-06 Note: One successful gmin step
Trying gmin =   3.2781E-06 Note: One successful gmin step
Trying gmin =   2.0169E-06 Warning: Further gmin increment
Trying gmin =   2.9033E-06 Note: One successful gmin step
Trying gmin =   2.4199E-06 Note: One successful gmin step
Trying gmin =   1.8414E-06 Note: One successful gmin step
Trying gmin =   1.2222E-06 Note: One successful gmin step
Trying gmin =   6.6098E-07 Note: One successful gmin step
Trying gmin =   2.6287E-07 Note: One successful gmin step
Trying gmin =   6.5927E-08 Warning: Further gmin increment
Trying gmin =   1.8602E-07 Note: One successful gmin step
Trying gmin =   1.3164E-07 Note: One successful gmin step
Trying gmin =   7.8369E-08 Note: One successful gmin step
Trying gmin =   3.5997E-08 Note: One successful gmin step
Trying gmin =   1.1206E-08 Note: One successful gmin step
Trying gmin =   1.9463E-09 Note: One successful gmin step
Trying gmin =   1.9463E-10 Note: One successful gmin step
Trying gmin =   1.9463E-11 Note: One successful gmin step
Trying gmin =   1.9463E-12 Note: One successful gmin step
Trying gmin =   1.0000E-12 Note: One successful gmin step
Note: Dynamic gmin stepping completed

No. of Data Rows : 1
./schemas/simulation/MCDACDATA10.csv: No such file or directory
Doing analysis at TEMP = 27.000000 and TNOM = 27.000000

Note: include: has no value, DC 0 assumed
Note: Starting dynamic gmin stepping
Trying gmin =   1.0000E-03 Note: One successful gmin step
Trying gmin =   1.0000E-04 Note: One successful gmin step
Trying gmin =   1.0000E-05 Note: One successful gmin step
Trying gmin =   1.0000E-06 Warning: Further gmin increment
Trying gmin =   5.6234E-06 Note: One successful gmin step
Trying gmin =   2.3714E-06 Note: One successful gmin step
Trying gmin =   1.5399E-06 Note: One successful gmin step
Trying gmin =   8.0584E-07 Note: One successful gmin step
Trying gmin =   3.0505E-07 Note: One successful gmin step
Trying gmin =   7.1050E-08 Note: One successful gmin step
Trying gmin =   3.4289E-08 Note: One successful gmin step
Trying gmin =   1.1496E-08 Note: One successful gmin step
Trying gmin =   2.2317E-09 Note: One successful gmin step
Trying gmin =   2.2317E-10 Note: One successful gmin step
Trying gmin =   2.2317E-11 Note: One successful gmin step
Trying gmin =   2.2317E-12 Note: One successful gmin step
Trying gmin =   1.0000E-12 Note: One successful gmin step
Note: Dynamic gmin stepping completed

No. of Data Rows : 1
./schemas/simulation/MCDACDATA10.csv: No such file or directory
Doing analysis at TEMP = 27.000000 and TNOM = 27.000000

Note: include: has no value, DC 0 assumed
Note: Starting dynamic gmin stepping
Trying gmin =   1.0000E-03 Note: One successful gmin step
Trying gmin =   1.0000E-04 Note: One successful gmin step
Trying gmin =   1.0000E-05 Note: One successful gmin step
Trying gmin =   1.0000E-06 Warning: Further gmin increment
Trying gmin =   5.6234E-06 Note: One successful gmin step
Trying gmin =   2.3714E-06 Note: One successful gmin step
Trying gmin =   1.0000E-06 Note: One successful gmin step
Trying gmin =   2.7384E-07 Note: One successful gmin step
Trying gmin =   3.9242E-08 Warning: Further gmin increment
Trying gmin =   1.6849E-07 Warning: Further gmin increment
Trying gmin =   2.4253E-07 Note: One successful gmin step
Trying gmin =   2.0215E-07 Note: One successful gmin step
Trying gmin =   1.6849E-07 Note: One successful gmin step
Trying gmin =   1.2821E-07 Note: One successful gmin step
Trying gmin =   8.5100E-08 Note: One successful gmin step
Trying gmin =   4.6022E-08 Note: One successful gmin step
Trying gmin =   1.8303E-08 Note: One successful gmin step
Trying gmin =   4.5902E-09 Note: One successful gmin step
Trying gmin =   5.7653E-10 Note: One successful gmin step
Trying gmin =   5.7653E-11 Note: One successful gmin step
Trying gmin =   5.7653E-12 Note: One successful gmin step
Trying gmin =   1.0000E-12 Note: One successful gmin step
Note: Dynamic gmin stepping completed

No. of Data Rows : 1
./schemas/simulation/MCDACDATA10.csv: No such file or directory
Doing analysis at TEMP = 27.000000 and TNOM = 27.000000

Note: include: has no value, DC 0 assumed
Note: Starting dynamic gmin stepping
Trying gmin =   1.0000E-03 Note: One successful gmin step
Trying gmin =   1.0000E-04 Note: One successful gmin step
Trying gmin =   1.0000E-05 Note: One successful gmin step
Trying gmin =   1.0000E-06 Warning: Further gmin increment
Trying gmin =   5.6234E-06 Note: One successful gmin step
Trying gmin =   2.3714E-06 Note: One successful gmin step
Trying gmin =   1.0000E-06 Note: One successful gmin step
Trying gmin =   2.7384E-07 Note: One successful gmin step
Trying gmin =   3.9242E-08 Warning: Further gmin increment
Trying gmin =   1.6849E-07 Note: One successful gmin step
Trying gmin =   1.3216E-07 Note: One successful gmin step
Trying gmin =   9.1810E-08 Note: One successful gmin step
Trying gmin =   5.3160E-08 Note: One successful gmin step
Trying gmin =   2.3422E-08 Note: One successful gmin step
Trying gmin =   6.8500E-09 Note: One successful gmin step
Trying gmin =   1.0834E-09 Note: One successful gmin step
Trying gmin =   1.0834E-10 Note: One successful gmin step
Trying gmin =   1.0834E-11 Note: One successful gmin step
Trying gmin =   1.0834E-12 Note: One successful gmin step
Trying gmin =   1.0000E-12 Note: One successful gmin step
Note: Dynamic gmin stepping completed

No. of Data Rows : 1
./schemas/simulation/MCDACDATA10.csv: No such file or directory
Reset re-loads circuit ** sch_path: /home/lxbtlr/dtilo/schemas/mc_testbench.sch

Circuit: ** sch_path: /home/lxbtlr/dtilo/schemas/mc_testbench.sch

ngspice-40 done
