
Note: No compatibility mode selected!


Circuit: ** sch_path: /home/lxbtlr/dtilo/schemas/mc_testbench.sch

Error: no such device or model name v0
Doing analysis at TEMP = 27.000000 and TNOM = 27.000000

Note: include: has no value, DC 0 assumed
Note: Starting dynamic gmin stepping
Trying gmin =   1.0000E-03 Note: One successful gmin step
Trying gmin =   1.0000E-04 Note: One successful gmin step
Trying gmin =   1.0000E-05 Note: One successful gmin step
Trying gmin =   1.0000E-06 Warning: Further gmin increment
Trying gmin =   5.6234E-06 Note: One successful gmin step
Trying gmin =   2.3714E-06 Warning: Further gmin increment
Trying gmin =   4.5316E-06 Note: One successful gmin step
Trying gmin =   3.2781E-06 Warning: Further gmin increment
Trying gmin =   4.1792E-06 Note: One successful gmin step
Trying gmin =   3.7013E-06 Note: One successful gmin step
Trying gmin =   3.0850E-06 Warning: Further gmin increment
Trying gmin =   3.5366E-06 Warning: Further gmin increment
Trying gmin =   3.6594E-06 Warning: Further gmin increment
Trying gmin =   3.6908E-06 Note: One successful gmin step
Trying gmin =   3.6751E-06 Warning: Further gmin increment
Trying gmin =   3.6869E-06 Warning: Further gmin increment
Trying gmin =   3.6898E-06 Note: One successful gmin step
Trying gmin =   3.6884E-06 Warning: Further gmin increment
Trying gmin =   3.6895E-06 Note: One successful gmin step
Trying gmin =   3.6889E-06 Note: One successful gmin step
Trying gmin =   3.6881E-06 Note: One successful gmin step
Trying gmin =   3.6877E-06 Note: One successful gmin step
Trying gmin =   3.6870E-06 Note: One successful gmin step
Trying gmin =   3.6861E-06 Note: One successful gmin step
Trying gmin =   3.6847E-06 Note: One successful gmin step
Trying gmin =   3.6826E-06 Note: One successful gmin step
Trying gmin =   3.6795E-06 Note: One successful gmin step
Trying gmin =   3.6748E-06 Note: One successful gmin step
Trying gmin =   3.6677E-06 Note: One successful gmin step
Trying gmin =   3.6571E-06 Note: One successful gmin step
Trying gmin =   3.6413E-06 Note: One successful gmin step
Trying gmin =   3.6178E-06 Note: One successful gmin step
Trying gmin =   3.5827E-06 Note: One successful gmin step
Trying gmin =   3.5308E-06 Note: One successful gmin step
Trying gmin =   3.4543E-06 Note: One successful gmin step
Trying gmin =   3.3426E-06 Note: One successful gmin step
Trying gmin =   3.1819E-06 Note: One successful gmin step
Trying gmin =   2.9551E-06 Note: One successful gmin step
Trying gmin =   2.6449E-06 Note: One successful gmin step
Trying gmin =   2.2396E-06 Note: One successful gmin step
Trying gmin =   1.7450E-06 Note: One successful gmin step
Trying gmin =   1.2002E-06 Note: One successful gmin step
Trying gmin =   6.8458E-07 Note: One successful gmin step
Trying gmin =   2.9491E-07 Note: One successful gmin step
Trying gmin =   8.3385E-08 Warning: Further gmin increment
Trying gmin =   2.1505E-07 Note: One successful gmin step
Trying gmin =   1.5682E-07 Note: One successful gmin step
Trying gmin =   1.1435E-07 Note: One successful gmin step
Trying gmin =   7.1205E-08 Note: One successful gmin step
Trying gmin =   3.4988E-08 Note: One successful gmin step
Trying gmin =   1.2051E-08 Note: One successful gmin step
Trying gmin =   2.4362E-09 Note: One successful gmin step
Trying gmin =   2.4362E-10 Note: One successful gmin step
Trying gmin =   2.4362E-11 Note: One successful gmin step
Trying gmin =   2.4362E-12 Note: One successful gmin step
Trying gmin =   1.0000E-12 Note: One successful gmin step
Note: Dynamic gmin stepping completed

No. of Data Rows : 1
./data_fld/MCDACDATA1.csv: No such file or directory
Error: no such device or model name v0
Doing analysis at TEMP = 27.000000 and TNOM = 27.000000

Note: include: has no value, DC 0 assumed
Note: Starting dynamic gmin stepping
Trying gmin =   1.0000E-03 Note: One successful gmin step
Trying gmin =   1.0000E-04 Note: One successful gmin step
Trying gmin =   1.0000E-05 Note: One successful gmin step
Trying gmin =   1.0000E-06 Warning: Further gmin increment
Trying gmin =   5.6234E-06 Note: One successful gmin step
Trying gmin =   2.3714E-06 Warning: Further gmin increment
Trying gmin =   4.5316E-06 Note: One successful gmin step
Trying gmin =   3.2781E-06 Warning: Further gmin increment
Trying gmin =   4.1792E-06 Note: One successful gmin step
Trying gmin =   3.7013E-06 Note: One successful gmin step
Trying gmin =   3.0850E-06 Warning: Further gmin increment
Trying gmin =   3.5366E-06 Warning: Further gmin increment
Trying gmin =   3.6594E-06 Warning: Further gmin increment
Trying gmin =   3.6908E-06 Note: One successful gmin step
Trying gmin =   3.6751E-06 Warning: Further gmin increment
Trying gmin =   3.6869E-06 Warning: Further gmin increment
Trying gmin =   3.6898E-06 Note: One successful gmin step
Trying gmin =   3.6884E-06 Warning: Further gmin increment
Trying gmin =   3.6895E-06 Note: One successful gmin step
Trying gmin =   3.6889E-06 Note: One successful gmin step
Trying gmin =   3.6881E-06 Note: One successful gmin step
Trying gmin =   3.6877E-06 Note: One successful gmin step
Trying gmin =   3.6870E-06 Note: One successful gmin step
Trying gmin =   3.6861E-06 Note: One successful gmin step
Trying gmin =   3.6847E-06 Note: One successful gmin step
Trying gmin =   3.6826E-06 Note: One successful gmin step
Trying gmin =   3.6795E-06 Note: One successful gmin step
Trying gmin =   3.6748E-06 Note: One successful gmin step
Trying gmin =   3.6677E-06 Note: One successful gmin step
Trying gmin =   3.6571E-06 Note: One successful gmin step
Trying gmin =   3.6413E-06 Note: One successful gmin step
Trying gmin =   3.6178E-06 Note: One successful gmin step
Trying gmin =   3.5827E-06 Note: One successful gmin step
Trying gmin =   3.5308E-06 Note: One successful gmin step
Trying gmin =   3.4543E-06 Note: One successful gmin step
Trying gmin =   3.3426E-06 Note: One successful gmin step
Trying gmin =   3.1819E-06 Note: One successful gmin step
Trying gmin =   2.9551E-06 Note: One successful gmin step
Trying gmin =   2.6449E-06 Note: One successful gmin step
Trying gmin =   2.2396E-06 Note: One successful gmin step
Trying gmin =   1.7450E-06 Note: One successful gmin step
Trying gmin =   1.2002E-06 Note: One successful gmin step
Trying gmin =   6.8458E-07 Note: One successful gmin step
Trying gmin =   2.9491E-07 Note: One successful gmin step
Trying gmin =   8.3385E-08 Warning: Further gmin increment
Trying gmin =   2.1505E-07 Note: One successful gmin step
Trying gmin =   1.5682E-07 Note: One successful gmin step
Trying gmin =   1.1435E-07 Note: One successful gmin step
Trying gmin =   7.1205E-08 Note: One successful gmin step
Trying gmin =   3.4988E-08 Note: One successful gmin step
Trying gmin =   1.2051E-08 Note: One successful gmin step
Trying gmin =   2.4362E-09 Note: One successful gmin step
Trying gmin =   2.4362E-10 Note: One successful gmin step
Trying gmin =   2.4362E-11 Note: One successful gmin step
Trying gmin =   2.4362E-12 Note: One successful gmin step
Trying gmin =   1.0000E-12 Note: One successful gmin step
Note: Dynamic gmin stepping completed

No. of Data Rows : 1
./data_fld/MCDACDATA1.csv: No such file or directory
Error: no such device or model name v0
Doing analysis at TEMP = 27.000000 and TNOM = 27.000000

Note: include: has no value, DC 0 assumed
Note: Starting dynamic gmin stepping
Trying gmin =   1.0000E-03 Note: One successful gmin step
Trying gmin =   1.0000E-04 Note: One successful gmin step
Trying gmin =   1.0000E-05 Note: One successful gmin step
Trying gmin =   1.0000E-06 Warning: Further gmin increment
Trying gmin =   5.6234E-06 Note: One successful gmin step
Trying gmin =   2.3714E-06 Warning: Further gmin increment
Trying gmin =   4.5316E-06 Note: One successful gmin step
Trying gmin =   3.2781E-06 Warning: Further gmin increment
Trying gmin =   4.1792E-06 Note: One successful gmin step
Trying gmin =   3.7013E-06 Note: One successful gmin step
Trying gmin =   3.0850E-06 Warning: Further gmin increment
Trying gmin =   3.5366E-06 Warning: Further gmin increment
Trying gmin =   3.6594E-06 Warning: Further gmin increment
Trying gmin =   3.6908E-06 Note: One successful gmin step
Trying gmin =   3.6751E-06 Warning: Further gmin increment
Trying gmin =   3.6869E-06 Warning: Further gmin increment
Trying gmin =   3.6898E-06 Note: One successful gmin step
Trying gmin =   3.6884E-06 Warning: Further gmin increment
Trying gmin =   3.6895E-06 Note: One successful gmin step
Trying gmin =   3.6889E-06 Note: One successful gmin step
Trying gmin =   3.6881E-06 Warning: Further gmin increment
Trying gmin =   3.6887E-06 Warning: Further gmin increment
Trying gmin =   3.6889E-06 Note: One successful gmin step
Trying gmin =   3.6888E-06 Warning: Last gmin step failed
Warning: Dynamic gmin stepping failed
Note: Starting true gmin stepping
Trying gmin =   1.0000E-03 Note: One successful gmin step
Trying gmin =   1.0000E-04 Note: One successful gmin step
Trying gmin =   1.0000E-05 Note: One successful gmin step
Trying gmin =   1.0000E-06 Note: One successful gmin step
Trying gmin =   1.0000E-07 Warning: Further gmin increment
Trying gmin =   5.6234E-07 Note: One successful gmin step
Trying gmin =   2.3714E-07 Warning: Further gmin increment
Trying gmin =   4.5316E-07 Note: One successful gmin step
Trying gmin =   3.2781E-07 Note: One successful gmin step
Trying gmin =   2.0169E-07 Warning: Further gmin increment
Trying gmin =   2.9033E-07 Warning: Further gmin increment
Trying gmin =   3.1801E-07 Note: One successful gmin step
Trying gmin =   3.0385E-07 Note: One successful gmin step
Trying gmin =   2.9033E-07 Note: One successful gmin step
Trying gmin =   2.7116E-07 Note: One successful gmin step
Trying gmin =   2.4476E-07 Note: One successful gmin step
Trying gmin =   2.0989E-07 Note: One successful gmin step
Trying gmin =   1.6668E-07 Note: One successful gmin step
Trying gmin =   1.1795E-07 Note: One successful gmin step
Trying gmin =   7.0219E-08 Note: One successful gmin step
Trying gmin =   3.2253E-08 Note: One successful gmin step
Trying gmin =   1.0040E-08 Note: One successful gmin step
Trying gmin =   1.7439E-09 Note: One successful gmin step
Trying gmin =   1.7439E-10 Note: One successful gmin step
Trying gmin =   1.7439E-11 Note: One successful gmin step
Trying gmin =   1.7439E-12 Note: One successful gmin step
Trying gmin =   1.0000E-12 Note: One successful gmin step
Note: True gmin stepping completed

No. of Data Rows : 1
./data_fld/MCDACDATA1.csv: No such file or directory
Error: no such device or model name v0
Doing analysis at TEMP = 27.000000 and TNOM = 27.000000

Note: include: has no value, DC 0 assumed
Note: Starting dynamic gmin stepping
Trying gmin =   1.0000E-03 Note: One successful gmin step
Trying gmin =   1.0000E-04 Note: One successful gmin step
Trying gmin =   1.0000E-05 Note: One successful gmin step
Trying gmin =   1.0000E-06 Warning: Further gmin increment
Trying gmin =   5.6234E-06 Note: One successful gmin step
Trying gmin =   2.3714E-06 Warning: Further gmin increment
Trying gmin =   4.5316E-06 Note: One successful gmin step
Trying gmin =   3.2781E-06 Warning: Further gmin increment
Trying gmin =   4.1792E-06 Note: One successful gmin step
Trying gmin =   3.7013E-06 Note: One successful gmin step
Trying gmin =   3.0850E-06 Warning: Further gmin increment
Trying gmin =   3.5366E-06 Warning: Further gmin increment
Trying gmin =   3.6594E-06 Warning: Further gmin increment
Trying gmin =   3.6908E-06 Note: One successful gmin step
Trying gmin =   3.6751E-06 Warning: Further gmin increment
Trying gmin =   3.6869E-06 Warning: Further gmin increment
Trying gmin =   3.6898E-06 Note: One successful gmin step
Trying gmin =   3.6884E-06 Warning: Further gmin increment
Trying gmin =   3.6895E-06 Note: One successful gmin step
Trying gmin =   3.6889E-06 Note: One successful gmin step
Trying gmin =   3.6881E-06 Warning: Further gmin increment
Trying gmin =   3.6887E-06 Warning: Further gmin increment
Trying gmin =   3.6889E-06 Note: One successful gmin step
Trying gmin =   3.6888E-06 Warning: Last gmin step failed
Warning: Dynamic gmin stepping failed
Note: Starting true gmin stepping
Trying gmin =   1.0000E-03 Note: One successful gmin step
Trying gmin =   1.0000E-04 Note: One successful gmin step
Trying gmin =   1.0000E-05 Note: One successful gmin step
Trying gmin =   1.0000E-06 Note: One successful gmin step
Trying gmin =   1.0000E-07 Warning: Further gmin increment
Trying gmin =   5.6234E-07 Note: One successful gmin step
Trying gmin =   2.3714E-07 Warning: Further gmin increment
Trying gmin =   4.5316E-07 Note: One successful gmin step
Trying gmin =   3.2781E-07 Note: One successful gmin step
Trying gmin =   2.0169E-07 Warning: Further gmin increment
Trying gmin =   2.9033E-07 Warning: Further gmin increment
Trying gmin =   3.1801E-07 Note: One successful gmin step
Trying gmin =   3.0385E-07 Note: One successful gmin step
Trying gmin =   2.9033E-07 Note: One successful gmin step
Trying gmin =   2.7116E-07 Note: One successful gmin step
Trying gmin =   2.4476E-07 Note: One successful gmin step
Trying gmin =   2.0989E-07 Note: One successful gmin step
Trying gmin =   1.6668E-07 Note: One successful gmin step
Trying gmin =   1.1795E-07 Note: One successful gmin step
Trying gmin =   7.0219E-08 Note: One successful gmin step
Trying gmin =   3.2253E-08 Note: One successful gmin step
Trying gmin =   1.0040E-08 Note: One successful gmin step
Trying gmin =   1.7439E-09 Note: One successful gmin step
Trying gmin =   1.7439E-10 Note: One successful gmin step
Trying gmin =   1.7439E-11 Note: One successful gmin step
Trying gmin =   1.7439E-12 Note: One successful gmin step
Trying gmin =   1.0000E-12 Note: One successful gmin step
Note: True gmin stepping completed

No. of Data Rows : 1
./data_fld/MCDACDATA1.csv: No such file or directory
Error: no such device or model name v0
Doing analysis at TEMP = 27.000000 and TNOM = 27.000000

Note: include: has no value, DC 0 assumed
Note: Starting dynamic gmin stepping
Trying gmin =   1.0000E-03 Note: One successful gmin step
Trying gmin =   1.0000E-04 Note: One successful gmin step
Trying gmin =   1.0000E-05 Note: One successful gmin step
Trying gmin =   1.0000E-06 Warning: Further gmin increment
Trying gmin =   5.6234E-06 Note: One successful gmin step
Trying gmin =   2.3714E-06 Warning: Further gmin increment
Trying gmin =   4.5316E-06 Note: One successful gmin step
Trying gmin =   3.2781E-06 Warning: Further gmin increment
Trying gmin =   4.1792E-06 Note: One successful gmin step
Trying gmin =   3.7013E-06 Note: One successful gmin step
Trying gmin =   3.0850E-06 Warning: Further gmin increment
Trying gmin =   3.5366E-06 Warning: Further gmin increment
Trying gmin =   3.6594E-06 Warning: Further gmin increment
Trying gmin =   3.6908E-06 Note: One successful gmin step
Trying gmin =   3.6751E-06 Warning: Further gmin increment
Trying gmin =   3.6869E-06 Warning: Further gmin increment
Trying gmin =   3.6898E-06 Note: One successful gmin step
Trying gmin =   3.6884E-06 Warning: Further gmin increment
Trying gmin =   3.6895E-06 Note: One successful gmin step
Trying gmin =   3.6889E-06 Note: One successful gmin step
Trying gmin =   3.6881E-06 Warning: Further gmin increment
Trying gmin =   3.6887E-06 Warning: Further gmin increment
Trying gmin =   3.6889E-06 Note: One successful gmin step
Trying gmin =   3.6888E-06 Warning: Last gmin step failed
Warning: Dynamic gmin stepping failed
Note: Starting true gmin stepping
Trying gmin =   1.0000E-03 Note: One successful gmin step
Trying gmin =   1.0000E-04 Note: One successful gmin step
Trying gmin =   1.0000E-05 Note: One successful gmin step
Trying gmin =   1.0000E-06 Note: One successful gmin step
Trying gmin =   1.0000E-07 Warning: Further gmin increment
Trying gmin =   5.6234E-07 Note: One successful gmin step
Trying gmin =   2.3714E-07 Warning: Further gmin increment
Trying gmin =   4.5316E-07 Note: One successful gmin step
Trying gmin =   3.2781E-07 Note: One successful gmin step
Trying gmin =   2.0169E-07 Note: One successful gmin step
Trying gmin =   1.5820E-07 Note: One successful gmin step
Trying gmin =   1.0990E-07 Note: One successful gmin step
Trying gmin =   6.3637E-08 Note: One successful gmin step
Trying gmin =   2.8038E-08 Note: One successful gmin step
Trying gmin =   8.2001E-09 Note: One successful gmin step
Trying gmin =   1.2969E-09 Note: One successful gmin step
Trying gmin =   1.2969E-10 Note: One successful gmin step
Trying gmin =   1.2969E-11 Note: One successful gmin step
Trying gmin =   1.2969E-12 Note: One successful gmin step
Trying gmin =   1.0000E-12 Note: One successful gmin step
Note: True gmin stepping completed

No. of Data Rows : 1
./data_fld/MCDACDATA1.csv: No such file or directory
Error: no such device or model name v0
Doing analysis at TEMP = 27.000000 and TNOM = 27.000000

Note: include: has no value, DC 0 assumed
Note: Starting dynamic gmin stepping
Trying gmin =   1.0000E-03 Note: One successful gmin step
Trying gmin =   1.0000E-04 Note: One successful gmin step
Trying gmin =   1.0000E-05 Note: One successful gmin step
Trying gmin =   1.0000E-06 Warning: Further gmin increment
Trying gmin =   5.6234E-06 Note: One successful gmin step
Trying gmin =   2.3714E-06 Warning: Further gmin increment
Trying gmin =   4.5316E-06 Note: One successful gmin step
Trying gmin =   3.2781E-06 Warning: Further gmin increment
Trying gmin =   4.1792E-06 Note: One successful gmin step
Trying gmin =   3.7013E-06 Note: One successful gmin step
Trying gmin =   3.0850E-06 Warning: Further gmin increment
Trying gmin =   3.5366E-06 Warning: Further gmin increment
Trying gmin =   3.6594E-06 Warning: Further gmin increment
Trying gmin =   3.6908E-06 Note: One successful gmin step
Trying gmin =   3.6751E-06 Warning: Further gmin increment
Trying gmin =   3.6869E-06 Warning: Further gmin increment
Trying gmin =   3.6898E-06 Note: One successful gmin step
Trying gmin =   3.6884E-06 Warning: Further gmin increment
Trying gmin =   3.6895E-06 Note: One successful gmin step
Trying gmin =   3.6889E-06 Note: One successful gmin step
Trying gmin =   3.6881E-06 Warning: Further gmin increment
Trying gmin =   3.6887E-06 Warning: Further gmin increment
Trying gmin =   3.6889E-06 Note: One successful gmin step
Trying gmin =   3.6888E-06 Warning: Last gmin step failed
Warning: Dynamic gmin stepping failed
Note: Starting true gmin stepping
Trying gmin =   1.0000E-03 Note: One successful gmin step
Trying gmin =   1.0000E-04 Note: One successful gmin step
Trying gmin =   1.0000E-05 Note: One successful gmin step
Trying gmin =   1.0000E-06 Note: One successful gmin step
Trying gmin =   1.0000E-07 Warning: Further gmin increment
Trying gmin =   5.6234E-07 Note: One successful gmin step
Trying gmin =   2.3714E-07 Warning: Further gmin increment
Trying gmin =   4.5316E-07 Note: One successful gmin step
Trying gmin =   3.2781E-07 Note: One successful gmin step
Trying gmin =   2.0169E-07 Note: One successful gmin step
Trying gmin =   1.5820E-07 Note: One successful gmin step
Trying gmin =   1.0990E-07 Note: One successful gmin step
Trying gmin =   6.3637E-08 Note: One successful gmin step
Trying gmin =   2.8038E-08 Note: One successful gmin step
Trying gmin =   8.2001E-09 Note: One successful gmin step
Trying gmin =   1.2969E-09 Note: One successful gmin step
Trying gmin =   1.2969E-10 Note: One successful gmin step
Trying gmin =   1.2969E-11 Note: One successful gmin step
Trying gmin =   1.2969E-12 Note: One successful gmin step
Trying gmin =   1.0000E-12 Note: One successful gmin step
Note: True gmin stepping completed

No. of Data Rows : 1
./data_fld/MCDACDATA1.csv: No such file or directory
Error: no such device or model name v0
Doing analysis at TEMP = 27.000000 and TNOM = 27.000000

Note: include: has no value, DC 0 assumed
Note: Starting dynamic gmin stepping
Trying gmin =   1.0000E-03 Note: One successful gmin step
Trying gmin =   1.0000E-04 Note: One successful gmin step
Trying gmin =   1.0000E-05 Note: One successful gmin step
Trying gmin =   1.0000E-06 Warning: Further gmin increment
Trying gmin =   5.6234E-06 Note: One successful gmin step
Trying gmin =   2.3714E-06 Warning: Further gmin increment
Trying gmin =   4.5316E-06 Note: One successful gmin step
Trying gmin =   3.2781E-06 Warning: Further gmin increment
Trying gmin =   4.1792E-06 Note: One successful gmin step
Trying gmin =   3.7013E-06 Note: One successful gmin step
Trying gmin =   3.0850E-06 Warning: Further gmin increment
Trying gmin =   3.5366E-06 Warning: Further gmin increment
Trying gmin =   3.6594E-06 Warning: Further gmin increment
Trying gmin =   3.6908E-06 Note: One successful gmin step
Trying gmin =   3.6751E-06 Warning: Further gmin increment
Trying gmin =   3.6869E-06 Warning: Further gmin increment
Trying gmin =   3.6898E-06 Note: One successful gmin step
Trying gmin =   3.6884E-06 Warning: Further gmin increment
Trying gmin =   3.6895E-06 Note: One successful gmin step
Trying gmin =   3.6889E-06 Note: One successful gmin step
Trying gmin =   3.6881E-06 Warning: Further gmin increment
Trying gmin =   3.6887E-06 Warning: Further gmin increment
Trying gmin =   3.6889E-06 Note: One successful gmin step
Trying gmin =   3.6888E-06 Warning: Last gmin step failed
Warning: Dynamic gmin stepping failed
Note: Starting true gmin stepping
Trying gmin =   1.0000E-03 Note: One successful gmin step
Trying gmin =   1.0000E-04 Note: One successful gmin step
Trying gmin =   1.0000E-05 Note: One successful gmin step
Trying gmin =   1.0000E-06 Note: One successful gmin step
Trying gmin =   1.0000E-07 Warning: Further gmin increment
Trying gmin =   5.6234E-07 Note: One successful gmin step
Trying gmin =   2.3714E-07 Warning: Further gmin increment
Trying gmin =   4.5316E-07 Note: One successful gmin step
Trying gmin =   3.2781E-07 Note: One successful gmin step
Trying gmin =   2.0169E-07 Warning: Further gmin increment
Trying gmin =   2.9033E-07 Warning: Further gmin increment
Trying gmin =   3.1801E-07 Note: One successful gmin step
Trying gmin =   3.0385E-07 Note: One successful gmin step
Trying gmin =   2.9033E-07 Note: One successful gmin step
Trying gmin =   2.7116E-07 Note: One successful gmin step
Trying gmin =   2.4476E-07 Note: One successful gmin step
Trying gmin =   2.0989E-07 Note: One successful gmin step
Trying gmin =   1.6668E-07 Note: One successful gmin step
Trying gmin =   1.1795E-07 Note: One successful gmin step
Trying gmin =   7.0219E-08 Note: One successful gmin step
Trying gmin =   3.2253E-08 Note: One successful gmin step
Trying gmin =   1.0040E-08 Note: One successful gmin step
Trying gmin =   1.7439E-09 Note: One successful gmin step
Trying gmin =   1.7439E-10 Note: One successful gmin step
Trying gmin =   1.7439E-11 Note: One successful gmin step
Trying gmin =   1.7439E-12 Note: One successful gmin step
Trying gmin =   1.0000E-12 Note: One successful gmin step
Note: True gmin stepping completed

No. of Data Rows : 1
./data_fld/MCDACDATA1.csv: No such file or directory
Error: no such device or model name v0
Doing analysis at TEMP = 27.000000 and TNOM = 27.000000

Note: include: has no value, DC 0 assumed
Note: Starting dynamic gmin stepping
Trying gmin =   1.0000E-03 Note: One successful gmin step
Trying gmin =   1.0000E-04 Note: One successful gmin step
Trying gmin =   1.0000E-05 Note: One successful gmin step
Trying gmin =   1.0000E-06 Warning: Further gmin increment
Trying gmin =   5.6234E-06 Note: One successful gmin step
Trying gmin =   2.3714E-06 Warning: Further gmin increment
Trying gmin =   4.5316E-06 Note: One successful gmin step
Trying gmin =   3.2781E-06 Warning: Further gmin increment
Trying gmin =   4.1792E-06 Note: One successful gmin step
Trying gmin =   3.7013E-06 Note: One successful gmin step
Trying gmin =   3.0850E-06 Warning: Further gmin increment
Trying gmin =   3.5366E-06 Warning: Further gmin increment
Trying gmin =   3.6594E-06 Warning: Further gmin increment
Trying gmin =   3.6908E-06 Note: One successful gmin step
Trying gmin =   3.6751E-06 Warning: Further gmin increment
Trying gmin =   3.6869E-06 Warning: Further gmin increment
Trying gmin =   3.6898E-06 Note: One successful gmin step
Trying gmin =   3.6884E-06 Warning: Further gmin increment
Trying gmin =   3.6895E-06 Note: One successful gmin step
Trying gmin =   3.6889E-06 Note: One successful gmin step
Trying gmin =   3.6881E-06 Warning: Further gmin increment
Trying gmin =   3.6887E-06 Warning: Further gmin increment
Trying gmin =   3.6889E-06 Note: One successful gmin step
Trying gmin =   3.6888E-06 Warning: Last gmin step failed
Warning: Dynamic gmin stepping failed
Note: Starting true gmin stepping
Trying gmin =   1.0000E-03 Note: One successful gmin step
Trying gmin =   1.0000E-04 Note: One successful gmin step
Trying gmin =   1.0000E-05 Note: One successful gmin step
Trying gmin =   1.0000E-06 Note: One successful gmin step
Trying gmin =   1.0000E-07 Warning: Further gmin increment
Trying gmin =   5.6234E-07 Note: One successful gmin step
Trying gmin =   2.3714E-07 Warning: Further gmin increment
Trying gmin =   4.5316E-07 Note: One successful gmin step
Trying gmin =   3.2781E-07 Note: One successful gmin step
Trying gmin =   2.0169E-07 Warning: Further gmin increment
Trying gmin =   2.9033E-07 Warning: Further gmin increment
Trying gmin =   3.1801E-07 Note: One successful gmin step
Trying gmin =   3.0385E-07 Note: One successful gmin step
Trying gmin =   2.9033E-07 Note: One successful gmin step
Trying gmin =   2.7116E-07 Note: One successful gmin step
Trying gmin =   2.4476E-07 Note: One successful gmin step
Trying gmin =   2.0989E-07 Note: One successful gmin step
Trying gmin =   1.6668E-07 Note: One successful gmin step
Trying gmin =   1.1795E-07 Note: One successful gmin step
Trying gmin =   7.0219E-08 Note: One successful gmin step
Trying gmin =   3.2253E-08 Note: One successful gmin step
Trying gmin =   1.0040E-08 Note: One successful gmin step
Trying gmin =   1.7439E-09 Note: One successful gmin step
Trying gmin =   1.7439E-10 Note: One successful gmin step
Trying gmin =   1.7439E-11 Note: One successful gmin step
Trying gmin =   1.7439E-12 Note: One successful gmin step
Trying gmin =   1.0000E-12 Note: One successful gmin step
Note: True gmin stepping completed

No. of Data Rows : 1
./data_fld/MCDACDATA1.csv: No such file or directory
Error: no such device or model name v0
Doing analysis at TEMP = 27.000000 and TNOM = 27.000000

Note: include: has no value, DC 0 assumed
Note: Starting dynamic gmin stepping
Trying gmin =   1.0000E-03 Note: One successful gmin step
Trying gmin =   1.0000E-04 Note: One successful gmin step
Trying gmin =   1.0000E-05 Note: One successful gmin step
Trying gmin =   1.0000E-06 Warning: Further gmin increment
Trying gmin =   5.6234E-06 Note: One successful gmin step
Trying gmin =   2.3714E-06 Warning: Further gmin increment
Trying gmin =   4.5316E-06 Note: One successful gmin step
Trying gmin =   3.2781E-06 Warning: Further gmin increment
Trying gmin =   4.1792E-06 Note: One successful gmin step
Trying gmin =   3.7013E-06 Note: One successful gmin step
Trying gmin =   3.0850E-06 Warning: Further gmin increment
Trying gmin =   3.5366E-06 Note: One successful gmin step
Trying gmin =   3.3031E-06 Note: One successful gmin step
Trying gmin =   2.9814E-06 Note: One successful gmin step
Trying gmin =   2.5567E-06 Note: One successful gmin step
Trying gmin =   2.0304E-06 Note: One successful gmin step
Trying gmin =   1.4368E-06 Note: One successful gmin step
Trying gmin =   8.5536E-07 Note: One successful gmin step
Trying gmin =   3.9289E-07 Note: One successful gmin step
Trying gmin =   1.2231E-07 Warning: Further gmin increment
Trying gmin =   2.9347E-07 Note: One successful gmin step
Trying gmin =   1.8945E-07 Note: One successful gmin step
Trying gmin =   1.2231E-07 Note: One successful gmin step
Trying gmin =   6.3439E-08 Note: One successful gmin step
Trying gmin =   2.3699E-08 Note: One successful gmin step
Trying gmin =   5.4110E-09 Note: One successful gmin step
Trying gmin =   5.9035E-10 Note: One successful gmin step
Trying gmin =   5.9035E-11 Note: One successful gmin step
Trying gmin =   5.9035E-12 Note: One successful gmin step
Trying gmin =   1.0000E-12 Note: One successful gmin step
Note: Dynamic gmin stepping completed

No. of Data Rows : 1
./data_fld/MCDACDATA1.csv: No such file or directory
Error: no such device or model name v0
Doing analysis at TEMP = 27.000000 and TNOM = 27.000000

Note: include: has no value, DC 0 assumed
Note: Starting dynamic gmin stepping
Trying gmin =   1.0000E-03 Note: One successful gmin step
Trying gmin =   1.0000E-04 Note: One successful gmin step
Trying gmin =   1.0000E-05 Note: One successful gmin step
Trying gmin =   1.0000E-06 Warning: Further gmin increment
Trying gmin =   5.6234E-06 Note: One successful gmin step
Trying gmin =   2.3714E-06 Warning: Further gmin increment
Trying gmin =   4.5316E-06 Note: One successful gmin step
Trying gmin =   3.2781E-06 Warning: Further gmin increment
Trying gmin =   4.1792E-06 Note: One successful gmin step
Trying gmin =   3.7013E-06 Note: One successful gmin step
Trying gmin =   3.0850E-06 Warning: Further gmin increment
Trying gmin =   3.5366E-06 Note: One successful gmin step
Trying gmin =   3.3031E-06 Note: One successful gmin step
Trying gmin =   2.9814E-06 Note: One successful gmin step
Trying gmin =   2.5567E-06 Note: One successful gmin step
Trying gmin =   2.0304E-06 Note: One successful gmin step
Trying gmin =   1.4368E-06 Note: One successful gmin step
Trying gmin =   8.5536E-07 Note: One successful gmin step
Trying gmin =   3.9289E-07 Note: One successful gmin step
Trying gmin =   1.2231E-07 Warning: Further gmin increment
Trying gmin =   2.9347E-07 Note: One successful gmin step
Trying gmin =   1.8945E-07 Note: One successful gmin step
Trying gmin =   1.2231E-07 Note: One successful gmin step
Trying gmin =   6.3439E-08 Note: One successful gmin step
Trying gmin =   2.3699E-08 Note: One successful gmin step
Trying gmin =   5.4110E-09 Note: One successful gmin step
Trying gmin =   5.9035E-10 Note: One successful gmin step
Trying gmin =   5.9035E-11 Note: One successful gmin step
Trying gmin =   5.9035E-12 Note: One successful gmin step
Trying gmin =   1.0000E-12 Note: One successful gmin step
Note: Dynamic gmin stepping completed

No. of Data Rows : 1
./data_fld/MCDACDATA1.csv: No such file or directory
Error: no such device or model name v0
Doing analysis at TEMP = 27.000000 and TNOM = 27.000000

Note: include: has no value, DC 0 assumed
Note: Starting dynamic gmin stepping
Trying gmin =   1.0000E-03 Note: One successful gmin step
Trying gmin =   1.0000E-04 Note: One successful gmin step
Trying gmin =   1.0000E-05 Note: One successful gmin step
Trying gmin =   1.0000E-06 Warning: Further gmin increment
Trying gmin =   5.6234E-06 Note: One successful gmin step
Trying gmin =   2.3714E-06 Warning: Further gmin increment
Trying gmin =   4.5316E-06 Note: One successful gmin step
Trying gmin =   3.2781E-06 Warning: Further gmin increment
Trying gmin =   4.1792E-06 Note: One successful gmin step
Trying gmin =   3.7013E-06 Note: One successful gmin step
Trying gmin =   3.0850E-06 Warning: Further gmin increment
Trying gmin =   3.5366E-06 Note: One successful gmin step
Trying gmin =   3.3031E-06 Note: One successful gmin step
Trying gmin =   2.9814E-06 Note: One successful gmin step
Trying gmin =   2.5567E-06 Note: One successful gmin step
Trying gmin =   2.0304E-06 Note: One successful gmin step
Trying gmin =   1.4368E-06 Note: One successful gmin step
Trying gmin =   8.5536E-07 Note: One successful gmin step
Trying gmin =   3.9289E-07 Note: One successful gmin step
Trying gmin =   1.2231E-07 Warning: Further gmin increment
Trying gmin =   2.9347E-07 Note: One successful gmin step
Trying gmin =   1.8945E-07 Note: One successful gmin step
Trying gmin =   1.2231E-07 Note: One successful gmin step
Trying gmin =   6.3439E-08 Note: One successful gmin step
Trying gmin =   2.3699E-08 Note: One successful gmin step
Trying gmin =   5.4110E-09 Note: One successful gmin step
Trying gmin =   5.9035E-10 Note: One successful gmin step
Trying gmin =   5.9035E-11 Note: One successful gmin step
Trying gmin =   5.9035E-12 Note: One successful gmin step
Trying gmin =   1.0000E-12 Note: One successful gmin step
Note: Dynamic gmin stepping completed

No. of Data Rows : 1
./data_fld/MCDACDATA1.csv: No such file or directory
Error: no such device or model name v0
Doing analysis at TEMP = 27.000000 and TNOM = 27.000000

Note: include: has no value, DC 0 assumed
Note: Starting dynamic gmin stepping
Trying gmin =   1.0000E-03 Note: One successful gmin step
Trying gmin =   1.0000E-04 Note: One successful gmin step
Trying gmin =   1.0000E-05 Note: One successful gmin step
Trying gmin =   1.0000E-06 Warning: Further gmin increment
Trying gmin =   5.6234E-06 Note: One successful gmin step
Trying gmin =   2.3714E-06 Warning: Further gmin increment
Trying gmin =   4.5316E-06 Note: One successful gmin step
Trying gmin =   3.2781E-06 Warning: Further gmin increment
Trying gmin =   4.1792E-06 Note: One successful gmin step
Trying gmin =   3.7013E-06 Note: One successful gmin step
Trying gmin =   3.0850E-06 Warning: Further gmin increment
Trying gmin =   3.5366E-06 Note: One successful gmin step
Trying gmin =   3.3031E-06 Note: One successful gmin step
Trying gmin =   2.9814E-06 Note: One successful gmin step
Trying gmin =   2.5567E-06 Note: One successful gmin step
Trying gmin =   2.0304E-06 Note: One successful gmin step
Trying gmin =   1.4368E-06 Note: One successful gmin step
Trying gmin =   8.5536E-07 Note: One successful gmin step
Trying gmin =   3.9289E-07 Note: One successful gmin step
Trying gmin =   1.2231E-07 Warning: Further gmin increment
Trying gmin =   2.9347E-07 Note: One successful gmin step
Trying gmin =   1.8945E-07 Note: One successful gmin step
Trying gmin =   1.2231E-07 Note: One successful gmin step
Trying gmin =   6.3439E-08 Note: One successful gmin step
Trying gmin =   2.3699E-08 Note: One successful gmin step
Trying gmin =   5.4110E-09 Note: One successful gmin step
Trying gmin =   5.9035E-10 Note: One successful gmin step
Trying gmin =   5.9035E-11 Note: One successful gmin step
Trying gmin =   5.9035E-12 Note: One successful gmin step
Trying gmin =   1.0000E-12 Note: One successful gmin step
Note: Dynamic gmin stepping completed

No. of Data Rows : 1
./data_fld/MCDACDATA1.csv: No such file or directory
Error: no such device or model name v0
Doing analysis at TEMP = 27.000000 and TNOM = 27.000000

Note: include: has no value, DC 0 assumed
Note: Starting dynamic gmin stepping
Trying gmin =   1.0000E-03 Note: One successful gmin step
Trying gmin =   1.0000E-04 Note: One successful gmin step
Trying gmin =   1.0000E-05 Note: One successful gmin step
Trying gmin =   1.0000E-06 Warning: Further gmin increment
Trying gmin =   5.6234E-06 Note: One successful gmin step
Trying gmin =   2.3714E-06 Warning: Further gmin increment
Trying gmin =   4.5316E-06 Note: One successful gmin step
Trying gmin =   3.2781E-06 Warning: Further gmin increment
Trying gmin =   4.1792E-06 Note: One successful gmin step
Trying gmin =   3.7013E-06 Note: One successful gmin step
Trying gmin =   3.0850E-06 Warning: Further gmin increment
Trying gmin =   3.5366E-06 Warning: Further gmin increment
Trying gmin =   3.6594E-06 Warning: Further gmin increment
Trying gmin =   3.6908E-06 Note: One successful gmin step
Trying gmin =   3.6751E-06 Warning: Further gmin increment
Trying gmin =   3.6869E-06 Warning: Further gmin increment
Trying gmin =   3.6898E-06 Note: One successful gmin step
Trying gmin =   3.6884E-06 Warning: Further gmin increment
Trying gmin =   3.6895E-06 Note: One successful gmin step
Trying gmin =   3.6889E-06 Note: One successful gmin step
Trying gmin =   3.6881E-06 Warning: Further gmin increment
Trying gmin =   3.6887E-06 Warning: Further gmin increment
Trying gmin =   3.6889E-06 Note: One successful gmin step
Trying gmin =   3.6888E-06 Warning: Last gmin step failed
Warning: Dynamic gmin stepping failed
Note: Starting true gmin stepping
Trying gmin =   1.0000E-03 Note: One successful gmin step
Trying gmin =   1.0000E-04 Note: One successful gmin step
Trying gmin =   1.0000E-05 Note: One successful gmin step
Trying gmin =   1.0000E-06 Note: One successful gmin step
Trying gmin =   1.0000E-07 Warning: Further gmin increment
Trying gmin =   5.6234E-07 Note: One successful gmin step
Trying gmin =   2.3714E-07 Warning: Further gmin increment
Trying gmin =   4.5316E-07 Note: One successful gmin step
Trying gmin =   3.2781E-07 Note: One successful gmin step
Trying gmin =   2.0169E-07 Warning: Further gmin increment
Trying gmin =   2.9033E-07 Warning: Further gmin increment
Trying gmin =   3.1801E-07 Note: One successful gmin step
Trying gmin =   3.0385E-07 Note: One successful gmin step
Trying gmin =   2.9033E-07 Note: One successful gmin step
Trying gmin =   2.7116E-07 Note: One successful gmin step
Trying gmin =   2.4476E-07 Note: One successful gmin step
Trying gmin =   2.0989E-07 Note: One successful gmin step
Trying gmin =   1.6668E-07 Note: One successful gmin step
Trying gmin =   1.1795E-07 Note: One successful gmin step
Trying gmin =   7.0219E-08 Note: One successful gmin step
Trying gmin =   3.2253E-08 Note: One successful gmin step
Trying gmin =   1.0040E-08 Note: One successful gmin step
Trying gmin =   1.7439E-09 Note: One successful gmin step
Trying gmin =   1.7439E-10 Note: One successful gmin step
Trying gmin =   1.7439E-11 Note: One successful gmin step
Trying gmin =   1.7439E-12 Note: One successful gmin step
Trying gmin =   1.0000E-12 Note: One successful gmin step
Note: True gmin stepping completed

No. of Data Rows : 1
./data_fld/MCDACDATA1.csv: No such file or directory
Error: no such device or model name v0
Doing analysis at TEMP = 27.000000 and TNOM = 27.000000

Note: include: has no value, DC 0 assumed
Note: Starting dynamic gmin stepping
Trying gmin =   1.0000E-03 Note: One successful gmin step
Trying gmin =   1.0000E-04 Note: One successful gmin step
Trying gmin =   1.0000E-05 Note: One successful gmin step
Trying gmin =   1.0000E-06 Warning: Further gmin increment
Trying gmin =   5.6234E-06 Note: One successful gmin step
Trying gmin =   2.3714E-06 Warning: Further gmin increment
Trying gmin =   4.5316E-06 Note: One successful gmin step
Trying gmin =   3.2781E-06 Warning: Further gmin increment
Trying gmin =   4.1792E-06 Note: One successful gmin step
Trying gmin =   3.7013E-06 Note: One successful gmin step
Trying gmin =   3.0850E-06 Warning: Further gmin increment
Trying gmin =   3.5366E-06 Warning: Further gmin increment
Trying gmin =   3.6594E-06 Warning: Further gmin increment
Trying gmin =   3.6908E-06 Note: One successful gmin step
Trying gmin =   3.6751E-06 Warning: Further gmin increment
Trying gmin =   3.6869E-06 Warning: Further gmin increment
Trying gmin =   3.6898E-06 Note: One successful gmin step
Trying gmin =   3.6884E-06 Warning: Further gmin increment
Trying gmin =   3.6895E-06 Note: One successful gmin step
Trying gmin =   3.6889E-06 Note: One successful gmin step
Trying gmin =   3.6881E-06 Warning: Further gmin increment
Trying gmin =   3.6887E-06 Warning: Further gmin increment
Trying gmin =   3.6889E-06 Note: One successful gmin step
Trying gmin =   3.6888E-06 Warning: Last gmin step failed
Warning: Dynamic gmin stepping failed
Note: Starting true gmin stepping
Trying gmin =   1.0000E-03 Note: One successful gmin step
Trying gmin =   1.0000E-04 Note: One successful gmin step
Trying gmin =   1.0000E-05 Note: One successful gmin step
Trying gmin =   1.0000E-06 Note: One successful gmin step
Trying gmin =   1.0000E-07 Warning: Further gmin increment
Trying gmin =   5.6234E-07 Note: One successful gmin step
Trying gmin =   2.3714E-07 Warning: Further gmin increment
Trying gmin =   4.5316E-07 Note: One successful gmin step
Trying gmin =   3.2781E-07 Note: One successful gmin step
Trying gmin =   2.0169E-07 Warning: Further gmin increment
Trying gmin =   2.9033E-07 Warning: Further gmin increment
Trying gmin =   3.1801E-07 Note: One successful gmin step
Trying gmin =   3.0385E-07 Note: One successful gmin step
Trying gmin =   2.9033E-07 Note: One successful gmin step
Trying gmin =   2.7116E-07 Note: One successful gmin step
Trying gmin =   2.4476E-07 Note: One successful gmin step
Trying gmin =   2.0989E-07 Note: One successful gmin step
Trying gmin =   1.6668E-07 Note: One successful gmin step
Trying gmin =   1.1795E-07 Note: One successful gmin step
Trying gmin =   7.0219E-08 Note: One successful gmin step
Trying gmin =   3.2253E-08 Note: One successful gmin step
Trying gmin =   1.0040E-08 Note: One successful gmin step
Trying gmin =   1.7439E-09 Note: One successful gmin step
Trying gmin =   1.7439E-10 Note: One successful gmin step
Trying gmin =   1.7439E-11 Note: One successful gmin step
Trying gmin =   1.7439E-12 Note: One successful gmin step
Trying gmin =   1.0000E-12 Note: One successful gmin step
Note: True gmin stepping completed

No. of Data Rows : 1
./data_fld/MCDACDATA1.csv: No such file or directory
Error: no such device or model name v0
Doing analysis at TEMP = 27.000000 and TNOM = 27.000000

Note: include: has no value, DC 0 assumed
Note: Starting dynamic gmin stepping
Trying gmin =   1.0000E-03 Note: One successful gmin step
Trying gmin =   1.0000E-04 Note: One successful gmin step
Trying gmin =   1.0000E-05 Note: One successful gmin step
Trying gmin =   1.0000E-06 Warning: Further gmin increment
Trying gmin =   5.6234E-06 Note: One successful gmin step
Trying gmin =   2.3714E-06 Warning: Further gmin increment
Trying gmin =   4.5316E-06 Note: One successful gmin step
Trying gmin =   3.2781E-06 Warning: Further gmin increment
Trying gmin =   4.1792E-06 Note: One successful gmin step
Trying gmin =   3.7013E-06 Note: One successful gmin step
Trying gmin =   3.0850E-06 Warning: Further gmin increment
Trying gmin =   3.5366E-06 Warning: Further gmin increment
Trying gmin =   3.6594E-06 Warning: Further gmin increment
Trying gmin =   3.6908E-06 Note: One successful gmin step
Trying gmin =   3.6751E-06 Warning: Further gmin increment
Trying gmin =   3.6869E-06 Warning: Further gmin increment
Trying gmin =   3.6898E-06 Note: One successful gmin step
Trying gmin =   3.6884E-06 Warning: Further gmin increment
Trying gmin =   3.6895E-06 Note: One successful gmin step
Trying gmin =   3.6889E-06 Note: One successful gmin step
Trying gmin =   3.6881E-06 Warning: Further gmin increment
Trying gmin =   3.6887E-06 Warning: Further gmin increment
Trying gmin =   3.6889E-06 Note: One successful gmin step
Trying gmin =   3.6888E-06 Warning: Last gmin step failed
Warning: Dynamic gmin stepping failed
Note: Starting true gmin stepping
Trying gmin =   1.0000E-03 Note: One successful gmin step
Trying gmin =   1.0000E-04 Note: One successful gmin step
Trying gmin =   1.0000E-05 Note: One successful gmin step
Trying gmin =   1.0000E-06 Note: One successful gmin step
Trying gmin =   1.0000E-07 Warning: Further gmin increment
Trying gmin =   5.6234E-07 Note: One successful gmin step
Trying gmin =   2.3714E-07 Warning: Further gmin increment
Trying gmin =   4.5316E-07 Note: One successful gmin step
Trying gmin =   3.2781E-07 Note: One successful gmin step
Trying gmin =   2.0169E-07 Warning: Further gmin increment
Trying gmin =   2.9033E-07 Note: One successful gmin step
Trying gmin =   2.7323E-07 Note: One successful gmin step
Trying gmin =   2.4944E-07 Note: One successful gmin step
Trying gmin =   2.1759E-07 Note: One successful gmin step
Trying gmin =   1.7728E-07 Note: One successful gmin step
Trying gmin =   1.3037E-07 Note: One successful gmin step
Trying gmin =   8.2214E-08 Note: One successful gmin step
Trying gmin =   4.1173E-08 Note: One successful gmin step
Trying gmin =   1.4592E-08 Note: One successful gmin step
Trying gmin =   3.0785E-09 Note: One successful gmin step
Trying gmin =   3.0785E-10 Note: One successful gmin step
Trying gmin =   3.0785E-11 Note: One successful gmin step
Trying gmin =   3.0785E-12 Note: One successful gmin step
Trying gmin =   1.0000E-12 Note: One successful gmin step
Note: True gmin stepping completed

No. of Data Rows : 1
./data_fld/MCDACDATA1.csv: No such file or directory
Error: no such device or model name v0
Doing analysis at TEMP = 27.000000 and TNOM = 27.000000

Note: include: has no value, DC 0 assumed
Note: Starting dynamic gmin stepping
Trying gmin =   1.0000E-03 Note: One successful gmin step
Trying gmin =   1.0000E-04 Note: One successful gmin step
Trying gmin =   1.0000E-05 Note: One successful gmin step
Trying gmin =   1.0000E-06 Warning: Further gmin increment
Trying gmin =   5.6234E-06 Note: One successful gmin step
Trying gmin =   2.3714E-06 Warning: Further gmin increment
Trying gmin =   4.5316E-06 Note: One successful gmin step
Trying gmin =   3.2781E-06 Warning: Further gmin increment
Trying gmin =   4.1792E-06 Note: One successful gmin step
Trying gmin =   3.7013E-06 Note: One successful gmin step
Trying gmin =   3.0850E-06 Warning: Further gmin increment
Trying gmin =   3.5366E-06 Warning: Further gmin increment
Trying gmin =   3.6594E-06 Warning: Further gmin increment
Trying gmin =   3.6908E-06 Note: One successful gmin step
Trying gmin =   3.6751E-06 Warning: Further gmin increment
Trying gmin =   3.6869E-06 Warning: Further gmin increment
Trying gmin =   3.6898E-06 Note: One successful gmin step
Trying gmin =   3.6884E-06 Warning: Further gmin increment
Trying gmin =   3.6895E-06 Note: One successful gmin step
Trying gmin =   3.6889E-06 Note: One successful gmin step
Trying gmin =   3.6881E-06 Warning: Further gmin increment
Trying gmin =   3.6887E-06 Warning: Further gmin increment
Trying gmin =   3.6889E-06 Note: One successful gmin step
Trying gmin =   3.6888E-06 Warning: Last gmin step failed
Warning: Dynamic gmin stepping failed
Note: Starting true gmin stepping
Trying gmin =   1.0000E-03 Note: One successful gmin step
Trying gmin =   1.0000E-04 Note: One successful gmin step
Trying gmin =   1.0000E-05 Note: One successful gmin step
Trying gmin =   1.0000E-06 Note: One successful gmin step
Trying gmin =   1.0000E-07 Warning: Further gmin increment
Trying gmin =   5.6234E-07 Note: One successful gmin step
Trying gmin =   2.3714E-07 Warning: Further gmin increment
Trying gmin =   4.5316E-07 Note: One successful gmin step
Trying gmin =   3.2781E-07 Note: One successful gmin step
Trying gmin =   2.0169E-07 Warning: Further gmin increment
Trying gmin =   2.9033E-07 Note: One successful gmin step
Trying gmin =   2.7323E-07 Note: One successful gmin step
Trying gmin =   2.4944E-07 Note: One successful gmin step
Trying gmin =   2.1759E-07 Note: One successful gmin step
Trying gmin =   1.7728E-07 Note: One successful gmin step
Trying gmin =   1.3037E-07 Note: One successful gmin step
Trying gmin =   8.2214E-08 Note: One successful gmin step
Trying gmin =   4.1173E-08 Note: One successful gmin step
Trying gmin =   1.4592E-08 Note: One successful gmin step
Trying gmin =   3.0785E-09 Note: One successful gmin step
Trying gmin =   3.0785E-10 Note: One successful gmin step
Trying gmin =   3.0785E-11 Note: One successful gmin step
Trying gmin =   3.0785E-12 Note: One successful gmin step
Trying gmin =   1.0000E-12 Note: One successful gmin step
Note: True gmin stepping completed

No. of Data Rows : 1
./data_fld/MCDACDATA1.csv: No such file or directory
Error: no such device or model name v0
Doing analysis at TEMP = 27.000000 and TNOM = 27.000000

Note: include: has no value, DC 0 assumed
Note: Starting dynamic gmin stepping
Trying gmin =   1.0000E-03 Note: One successful gmin step
Trying gmin =   1.0000E-04 Note: One successful gmin step
Trying gmin =   1.0000E-05 Note: One successful gmin step
Trying gmin =   1.0000E-06 Warning: Further gmin increment
Trying gmin =   5.6234E-06 Note: One successful gmin step
Trying gmin =   2.3714E-06 Warning: Further gmin increment
Trying gmin =   4.5316E-06 Note: One successful gmin step
Trying gmin =   3.2781E-06 Warning: Further gmin increment
Trying gmin =   4.1792E-06 Note: One successful gmin step
Trying gmin =   3.7013E-06 Note: One successful gmin step
Trying gmin =   3.0850E-06 Warning: Further gmin increment
Trying gmin =   3.5366E-06 Warning: Further gmin increment
Trying gmin =   3.6594E-06 Warning: Further gmin increment
Trying gmin =   3.6908E-06 Note: One successful gmin step
Trying gmin =   3.6751E-06 Warning: Further gmin increment
Trying gmin =   3.6869E-06 Warning: Further gmin increment
Trying gmin =   3.6898E-06 Note: One successful gmin step
Trying gmin =   3.6884E-06 Warning: Further gmin increment
Trying gmin =   3.6895E-06 Note: One successful gmin step
Trying gmin =   3.6889E-06 Note: One successful gmin step
Trying gmin =   3.6881E-06 Note: One successful gmin step
Trying gmin =   3.6877E-06 Note: One successful gmin step
Trying gmin =   3.6870E-06 Note: One successful gmin step
Trying gmin =   3.6861E-06 Note: One successful gmin step
Trying gmin =   3.6847E-06 Note: One successful gmin step
Trying gmin =   3.6826E-06 Note: One successful gmin step
Trying gmin =   3.6795E-06 Note: One successful gmin step
Trying gmin =   3.6748E-06 Note: One successful gmin step
Trying gmin =   3.6677E-06 Note: One successful gmin step
Trying gmin =   3.6571E-06 Note: One successful gmin step
Trying gmin =   3.6413E-06 Note: One successful gmin step
Trying gmin =   3.6178E-06 Note: One successful gmin step
Trying gmin =   3.5827E-06 Note: One successful gmin step
Trying gmin =   3.5308E-06 Note: One successful gmin step
Trying gmin =   3.4543E-06 Note: One successful gmin step
Trying gmin =   3.3426E-06 Note: One successful gmin step
Trying gmin =   3.1819E-06 Note: One successful gmin step
Trying gmin =   2.9551E-06 Note: One successful gmin step
Trying gmin =   2.6449E-06 Note: One successful gmin step
Trying gmin =   2.2396E-06 Note: One successful gmin step
Trying gmin =   1.7450E-06 Note: One successful gmin step
Trying gmin =   1.2002E-06 Note: One successful gmin step
Trying gmin =   6.8458E-07 Note: One successful gmin step
Trying gmin =   2.9491E-07 Note: One successful gmin step
Trying gmin =   8.3385E-08 Warning: Further gmin increment
Trying gmin =   2.1505E-07 Note: One successful gmin step
Trying gmin =   1.5682E-07 Note: One successful gmin step
Trying gmin =   1.1435E-07 Note: One successful gmin step
Trying gmin =   7.1205E-08 Note: One successful gmin step
Trying gmin =   3.4988E-08 Note: One successful gmin step
Trying gmin =   1.2051E-08 Note: One successful gmin step
Trying gmin =   2.4362E-09 Note: One successful gmin step
Trying gmin =   2.4362E-10 Note: One successful gmin step
Trying gmin =   2.4362E-11 Note: One successful gmin step
Trying gmin =   2.4362E-12 Note: One successful gmin step
Trying gmin =   1.0000E-12 Note: One successful gmin step
Note: Dynamic gmin stepping completed

No. of Data Rows : 1
./data_fld/MCDACDATA1.csv: No such file or directory
Error: no such device or model name v0
Doing analysis at TEMP = 27.000000 and TNOM = 27.000000

Note: include: has no value, DC 0 assumed
Note: Starting dynamic gmin stepping
Trying gmin =   1.0000E-03 Note: One successful gmin step
Trying gmin =   1.0000E-04 Note: One successful gmin step
Trying gmin =   1.0000E-05 Note: One successful gmin step
Trying gmin =   1.0000E-06 Warning: Further gmin increment
Trying gmin =   5.6234E-06 Note: One successful gmin step
Trying gmin =   2.3714E-06 Warning: Further gmin increment
Trying gmin =   4.5316E-06 Note: One successful gmin step
Trying gmin =   3.2781E-06 Warning: Further gmin increment
Trying gmin =   4.1792E-06 Note: One successful gmin step
Trying gmin =   3.7013E-06 Note: One successful gmin step
Trying gmin =   3.0850E-06 Warning: Further gmin increment
Trying gmin =   3.5366E-06 Warning: Further gmin increment
Trying gmin =   3.6594E-06 Warning: Further gmin increment
Trying gmin =   3.6908E-06 Note: One successful gmin step
Trying gmin =   3.6751E-06 Warning: Further gmin increment
Trying gmin =   3.6869E-06 Warning: Further gmin increment
Trying gmin =   3.6898E-06 Note: One successful gmin step
Trying gmin =   3.6884E-06 Warning: Further gmin increment
Trying gmin =   3.6895E-06 Note: One successful gmin step
Trying gmin =   3.6889E-06 Note: One successful gmin step
Trying gmin =   3.6881E-06 Note: One successful gmin step
Trying gmin =   3.6877E-06 Note: One successful gmin step
Trying gmin =   3.6870E-06 Note: One successful gmin step
Trying gmin =   3.6861E-06 Note: One successful gmin step
Trying gmin =   3.6847E-06 Note: One successful gmin step
Trying gmin =   3.6826E-06 Note: One successful gmin step
Trying gmin =   3.6795E-06 Note: One successful gmin step
Trying gmin =   3.6748E-06 Note: One successful gmin step
Trying gmin =   3.6677E-06 Note: One successful gmin step
Trying gmin =   3.6571E-06 Note: One successful gmin step
Trying gmin =   3.6413E-06 Note: One successful gmin step
Trying gmin =   3.6178E-06 Note: One successful gmin step
Trying gmin =   3.5827E-06 Note: One successful gmin step
Trying gmin =   3.5308E-06 Note: One successful gmin step
Trying gmin =   3.4543E-06 Note: One successful gmin step
Trying gmin =   3.3426E-06 Note: One successful gmin step
Trying gmin =   3.1819E-06 Note: One successful gmin step
Trying gmin =   2.9551E-06 Note: One successful gmin step
Trying gmin =   2.6449E-06 Note: One successful gmin step
Trying gmin =   2.2396E-06 Note: One successful gmin step
Trying gmin =   1.7450E-06 Note: One successful gmin step
Trying gmin =   1.2002E-06 Note: One successful gmin step
Trying gmin =   6.8458E-07 Note: One successful gmin step
Trying gmin =   2.9491E-07 Note: One successful gmin step
Trying gmin =   8.3385E-08 Warning: Further gmin increment
Trying gmin =   2.1505E-07 Note: One successful gmin step
Trying gmin =   1.5682E-07 Note: One successful gmin step
Trying gmin =   1.1435E-07 Note: One successful gmin step
Trying gmin =   7.1205E-08 Note: One successful gmin step
Trying gmin =   3.4988E-08 Note: One successful gmin step
Trying gmin =   1.2051E-08 Note: One successful gmin step
Trying gmin =   2.4362E-09 Note: One successful gmin step
Trying gmin =   2.4362E-10 Note: One successful gmin step
Trying gmin =   2.4362E-11 Note: One successful gmin step
Trying gmin =   2.4362E-12 Note: One successful gmin step
Trying gmin =   1.0000E-12 Note: One successful gmin step
Note: Dynamic gmin stepping completed

No. of Data Rows : 1
./data_fld/MCDACDATA1.csv: No such file or directory
Error: no such device or model name v0
Doing analysis at TEMP = 27.000000 and TNOM = 27.000000

Note: include: has no value, DC 0 assumed
Note: Starting dynamic gmin stepping
Trying gmin =   1.0000E-03 Note: One successful gmin step
Trying gmin =   1.0000E-04 Note: One successful gmin step
Trying gmin =   1.0000E-05 Note: One successful gmin step
Trying gmin =   1.0000E-06 Warning: Further gmin increment
Trying gmin =   5.6234E-06 Note: One successful gmin step
Trying gmin =   2.3714E-06 Warning: Further gmin increment
Trying gmin =   4.5316E-06 Note: One successful gmin step
Trying gmin =   3.2781E-06 Warning: Further gmin increment
Trying gmin =   4.1792E-06 Note: One successful gmin step
Trying gmin =   3.7013E-06 Note: One successful gmin step
Trying gmin =   3.0850E-06 Warning: Further gmin increment
Trying gmin =   3.5366E-06 Warning: Further gmin increment
Trying gmin =   3.6594E-06 Warning: Further gmin increment
Trying gmin =   3.6908E-06 Note: One successful gmin step
Trying gmin =   3.6751E-06 Warning: Further gmin increment
Trying gmin =   3.6869E-06 Warning: Further gmin increment
Trying gmin =   3.6898E-06 Note: One successful gmin step
Trying gmin =   3.6884E-06 Warning: Further gmin increment
Trying gmin =   3.6895E-06 Note: One successful gmin step
Trying gmin =   3.6889E-06 Note: One successful gmin step
Trying gmin =   3.6881E-06 Warning: Further gmin increment
Trying gmin =   3.6887E-06 Warning: Further gmin increment
Trying gmin =   3.6889E-06 Note: One successful gmin step
Trying gmin =   3.6888E-06 Warning: Last gmin step failed
Warning: Dynamic gmin stepping failed
Note: Starting true gmin stepping
Trying gmin =   1.0000E-03 Note: One successful gmin step
Trying gmin =   1.0000E-04 Note: One successful gmin step
Trying gmin =   1.0000E-05 Note: One successful gmin step
Trying gmin =   1.0000E-06 Note: One successful gmin step
Trying gmin =   1.0000E-07 Warning: Further gmin increment
Trying gmin =   5.6234E-07 Note: One successful gmin step
Trying gmin =   2.3714E-07 Warning: Further gmin increment
Trying gmin =   4.5316E-07 Note: One successful gmin step
Trying gmin =   3.2781E-07 Note: One successful gmin step
Trying gmin =   2.0169E-07 Warning: Further gmin increment
Trying gmin =   2.9033E-07 Warning: Further gmin increment
Trying gmin =   3.1801E-07 Note: One successful gmin step
Trying gmin =   3.0385E-07 Note: One successful gmin step
Trying gmin =   2.9033E-07 Note: One successful gmin step
Trying gmin =   2.7116E-07 Note: One successful gmin step
Trying gmin =   2.4476E-07 Note: One successful gmin step
Trying gmin =   2.0989E-07 Note: One successful gmin step
Trying gmin =   1.6668E-07 Note: One successful gmin step
Trying gmin =   1.1795E-07 Note: One successful gmin step
Trying gmin =   7.0219E-08 Note: One successful gmin step
Trying gmin =   3.2253E-08 Note: One successful gmin step
Trying gmin =   1.0040E-08 Note: One successful gmin step
Trying gmin =   1.7439E-09 Note: One successful gmin step
Trying gmin =   1.7439E-10 Note: One successful gmin step
Trying gmin =   1.7439E-11 Note: One successful gmin step
Trying gmin =   1.7439E-12 Note: One successful gmin step
Trying gmin =   1.0000E-12 Note: One successful gmin step
Note: True gmin stepping completed

No. of Data Rows : 1
./data_fld/MCDACDATA1.csv: No such file or directory
Error: no such device or model name v0
Doing analysis at TEMP = 27.000000 and TNOM = 27.000000

Note: include: has no value, DC 0 assumed
Note: Starting dynamic gmin stepping
Trying gmin =   1.0000E-03 Note: One successful gmin step
Trying gmin =   1.0000E-04 Note: One successful gmin step
Trying gmin =   1.0000E-05 Note: One successful gmin step
Trying gmin =   1.0000E-06 Warning: Further gmin increment
Trying gmin =   5.6234E-06 Note: One successful gmin step
Trying gmin =   2.3714E-06 Warning: Further gmin increment
Trying gmin =   4.5316E-06 Note: One successful gmin step
Trying gmin =   3.2781E-06 Warning: Further gmin increment
Trying gmin =   4.1792E-06 Note: One successful gmin step
Trying gmin =   3.7013E-06 Note: One successful gmin step
Trying gmin =   3.0850E-06 Warning: Further gmin increment
Trying gmin =   3.5366E-06 Warning: Further gmin increment
Trying gmin =   3.6594E-06 Warning: Further gmin increment
Trying gmin =   3.6908E-06 Note: One successful gmin step
Trying gmin =   3.6751E-06 Warning: Further gmin increment
Trying gmin =   3.6869E-06 Warning: Further gmin increment
Trying gmin =   3.6898E-06 Note: One successful gmin step
Trying gmin =   3.6884E-06 Warning: Further gmin increment
Trying gmin =   3.6895E-06 Note: One successful gmin step
Trying gmin =   3.6889E-06 Note: One successful gmin step
Trying gmin =   3.6881E-06 Warning: Further gmin increment
Trying gmin =   3.6887E-06 Warning: Further gmin increment
Trying gmin =   3.6889E-06 Note: One successful gmin step
Trying gmin =   3.6888E-06 Warning: Last gmin step failed
Warning: Dynamic gmin stepping failed
Note: Starting true gmin stepping
Trying gmin =   1.0000E-03 Note: One successful gmin step
Trying gmin =   1.0000E-04 Note: One successful gmin step
Trying gmin =   1.0000E-05 Note: One successful gmin step
Trying gmin =   1.0000E-06 Note: One successful gmin step
Trying gmin =   1.0000E-07 Warning: Further gmin increment
Trying gmin =   5.6234E-07 Note: One successful gmin step
Trying gmin =   2.3714E-07 Warning: Further gmin increment
Trying gmin =   4.5316E-07 Note: One successful gmin step
Trying gmin =   3.2781E-07 Note: One successful gmin step
Trying gmin =   2.0169E-07 Warning: Further gmin increment
Trying gmin =   2.9033E-07 Warning: Further gmin increment
Trying gmin =   3.1801E-07 Note: One successful gmin step
Trying gmin =   3.0385E-07 Note: One successful gmin step
Trying gmin =   2.9033E-07 Note: One successful gmin step
Trying gmin =   2.7116E-07 Note: One successful gmin step
Trying gmin =   2.4476E-07 Note: One successful gmin step
Trying gmin =   2.0989E-07 Note: One successful gmin step
Trying gmin =   1.6668E-07 Note: One successful gmin step
Trying gmin =   1.1795E-07 Note: One successful gmin step
Trying gmin =   7.0219E-08 Note: One successful gmin step
Trying gmin =   3.2253E-08 Note: One successful gmin step
Trying gmin =   1.0040E-08 Note: One successful gmin step
Trying gmin =   1.7439E-09 Note: One successful gmin step
Trying gmin =   1.7439E-10 Note: One successful gmin step
Trying gmin =   1.7439E-11 Note: One successful gmin step
Trying gmin =   1.7439E-12 Note: One successful gmin step
Trying gmin =   1.0000E-12 Note: One successful gmin step
Note: True gmin stepping completed

No. of Data Rows : 1
./data_fld/MCDACDATA1.csv: No such file or directory
Error: no such device or model name v0
Doing analysis at TEMP = 27.000000 and TNOM = 27.000000

Note: include: has no value, DC 0 assumed
Note: Starting dynamic gmin stepping
Trying gmin =   1.0000E-03 Note: One successful gmin step
Trying gmin =   1.0000E-04 Note: One successful gmin step
Trying gmin =   1.0000E-05 Note: One successful gmin step
Trying gmin =   1.0000E-06 Warning: Further gmin increment
Trying gmin =   5.6234E-06 Note: One successful gmin step
Trying gmin =   2.3714E-06 Warning: Further gmin increment
Trying gmin =   4.5316E-06 Note: One successful gmin step
Trying gmin =   3.2781E-06 Warning: Further gmin increment
Trying gmin =   4.1792E-06 Note: One successful gmin step
Trying gmin =   3.7013E-06 Note: One successful gmin step
Trying gmin =   3.0850E-06 Warning: Further gmin increment
Trying gmin =   3.5366E-06 Warning: Further gmin increment
Trying gmin =   3.6594E-06 Warning: Further gmin increment
Trying gmin =   3.6908E-06 Note: One successful gmin step
Trying gmin =   3.6751E-06 Warning: Further gmin increment
Trying gmin =   3.6869E-06 Warning: Further gmin increment
Trying gmin =   3.6898E-06 Note: One successful gmin step
Trying gmin =   3.6884E-06 Warning: Further gmin increment
Trying gmin =   3.6895E-06 Note: One successful gmin step
Trying gmin =   3.6889E-06 Note: One successful gmin step
Trying gmin =   3.6881E-06 Warning: Further gmin increment
Trying gmin =   3.6887E-06 Warning: Further gmin increment
Trying gmin =   3.6889E-06 Note: One successful gmin step
Trying gmin =   3.6888E-06 Warning: Last gmin step failed
Warning: Dynamic gmin stepping failed
Note: Starting true gmin stepping
Trying gmin =   1.0000E-03 Note: One successful gmin step
Trying gmin =   1.0000E-04 Note: One successful gmin step
Trying gmin =   1.0000E-05 Note: One successful gmin step
Trying gmin =   1.0000E-06 Note: One successful gmin step
Trying gmin =   1.0000E-07 Warning: Further gmin increment
Trying gmin =   5.6234E-07 Note: One successful gmin step
Trying gmin =   2.3714E-07 Warning: Further gmin increment
Trying gmin =   4.5316E-07 Note: One successful gmin step
Trying gmin =   3.2781E-07 Note: One successful gmin step
Trying gmin =   2.0169E-07 Note: One successful gmin step
Trying gmin =   1.5820E-07 Note: One successful gmin step
Trying gmin =   1.0990E-07 Note: One successful gmin step
Trying gmin =   6.3637E-08 Note: One successful gmin step
Trying gmin =   2.8038E-08 Note: One successful gmin step
Trying gmin =   8.2001E-09 Note: One successful gmin step
Trying gmin =   1.2969E-09 Note: One successful gmin step
Trying gmin =   1.2969E-10 Note: One successful gmin step
Trying gmin =   1.2969E-11 Note: One successful gmin step
Trying gmin =   1.2969E-12 Note: One successful gmin step
Trying gmin =   1.0000E-12 Note: One successful gmin step
Note: True gmin stepping completed

No. of Data Rows : 1
./data_fld/MCDACDATA1.csv: No such file or directory
Error: no such device or model name v0
Doing analysis at TEMP = 27.000000 and TNOM = 27.000000

Note: include: has no value, DC 0 assumed
Note: Starting dynamic gmin stepping
Trying gmin =   1.0000E-03 Note: One successful gmin step
Trying gmin =   1.0000E-04 Note: One successful gmin step
Trying gmin =   1.0000E-05 Note: One successful gmin step
Trying gmin =   1.0000E-06 Warning: Further gmin increment
Trying gmin =   5.6234E-06 Note: One successful gmin step
Trying gmin =   2.3714E-06 Warning: Further gmin increment
Trying gmin =   4.5316E-06 Note: One successful gmin step
Trying gmin =   3.2781E-06 Warning: Further gmin increment
Trying gmin =   4.1792E-06 Note: One successful gmin step
Trying gmin =   3.7013E-06 Note: One successful gmin step
Trying gmin =   3.0850E-06 Warning: Further gmin increment
Trying gmin =   3.5366E-06 Warning: Further gmin increment
Trying gmin =   3.6594E-06 Warning: Further gmin increment
Trying gmin =   3.6908E-06 Note: One successful gmin step
Trying gmin =   3.6751E-06 Warning: Further gmin increment
Trying gmin =   3.6869E-06 Warning: Further gmin increment
Trying gmin =   3.6898E-06 Note: One successful gmin step
Trying gmin =   3.6884E-06 Warning: Further gmin increment
Trying gmin =   3.6895E-06 Note: One successful gmin step
Trying gmin =   3.6889E-06 Note: One successful gmin step
Trying gmin =   3.6881E-06 Warning: Further gmin increment
Trying gmin =   3.6887E-06 Warning: Further gmin increment
Trying gmin =   3.6889E-06 Note: One successful gmin step
Trying gmin =   3.6888E-06 Warning: Last gmin step failed
Warning: Dynamic gmin stepping failed
Note: Starting true gmin stepping
Trying gmin =   1.0000E-03 Note: One successful gmin step
Trying gmin =   1.0000E-04 Note: One successful gmin step
Trying gmin =   1.0000E-05 Note: One successful gmin step
Trying gmin =   1.0000E-06 Note: One successful gmin step
Trying gmin =   1.0000E-07 Warning: Further gmin increment
Trying gmin =   5.6234E-07 Note: One successful gmin step
Trying gmin =   2.3714E-07 Warning: Further gmin increment
Trying gmin =   4.5316E-07 Note: One successful gmin step
Trying gmin =   3.2781E-07 Note: One successful gmin step
Trying gmin =   2.0169E-07 Note: One successful gmin step
Trying gmin =   1.5820E-07 Note: One successful gmin step
Trying gmin =   1.0990E-07 Note: One successful gmin step
Trying gmin =   6.3637E-08 Note: One successful gmin step
Trying gmin =   2.8038E-08 Note: One successful gmin step
Trying gmin =   8.2001E-09 Note: One successful gmin step
Trying gmin =   1.2969E-09 Note: One successful gmin step
Trying gmin =   1.2969E-10 Note: One successful gmin step
Trying gmin =   1.2969E-11 Note: One successful gmin step
Trying gmin =   1.2969E-12 Note: One successful gmin step
Trying gmin =   1.0000E-12 Note: One successful gmin step
Note: True gmin stepping completed

No. of Data Rows : 1
./data_fld/MCDACDATA1.csv: No such file or directory
Error: no such device or model name v0
Doing analysis at TEMP = 27.000000 and TNOM = 27.000000

Note: include: has no value, DC 0 assumed
Note: Starting dynamic gmin stepping
Trying gmin =   1.0000E-03 Note: One successful gmin step
Trying gmin =   1.0000E-04 Note: One successful gmin step
Trying gmin =   1.0000E-05 Note: One successful gmin step
Trying gmin =   1.0000E-06 Warning: Further gmin increment
Trying gmin =   5.6234E-06 Note: One successful gmin step
Trying gmin =   2.3714E-06 Warning: Further gmin increment
Trying gmin =   4.5316E-06 Note: One successful gmin step
Trying gmin =   3.2781E-06 Warning: Further gmin increment
Trying gmin =   4.1792E-06 Note: One successful gmin step
Trying gmin =   3.7013E-06 Note: One successful gmin step
Trying gmin =   3.0850E-06 Warning: Further gmin increment
Trying gmin =   3.5366E-06 Warning: Further gmin increment
Trying gmin =   3.6594E-06 Warning: Further gmin increment
Trying gmin =   3.6908E-06 Note: One successful gmin step
Trying gmin =   3.6751E-06 Warning: Further gmin increment
Trying gmin =   3.6869E-06 Warning: Further gmin increment
Trying gmin =   3.6898E-06 Note: One successful gmin step
Trying gmin =   3.6884E-06 Warning: Further gmin increment
Trying gmin =   3.6895E-06 Note: One successful gmin step
Trying gmin =   3.6889E-06 Note: One successful gmin step
Trying gmin =   3.6881E-06 Warning: Further gmin increment
Trying gmin =   3.6887E-06 Warning: Further gmin increment
Trying gmin =   3.6889E-06 Note: One successful gmin step
Trying gmin =   3.6888E-06 Warning: Last gmin step failed
Warning: Dynamic gmin stepping failed
Note: Starting true gmin stepping
Trying gmin =   1.0000E-03 Note: One successful gmin step
Trying gmin =   1.0000E-04 Note: One successful gmin step
Trying gmin =   1.0000E-05 Note: One successful gmin step
Trying gmin =   1.0000E-06 Note: One successful gmin step
Trying gmin =   1.0000E-07 Warning: Further gmin increment
Trying gmin =   5.6234E-07 Note: One successful gmin step
Trying gmin =   2.3714E-07 Warning: Further gmin increment
Trying gmin =   4.5316E-07 Note: One successful gmin step
Trying gmin =   3.2781E-07 Note: One successful gmin step
Trying gmin =   2.0169E-07 Warning: Further gmin increment
Trying gmin =   2.9033E-07 Warning: Further gmin increment
Trying gmin =   3.1801E-07 Note: One successful gmin step
Trying gmin =   3.0385E-07 Note: One successful gmin step
Trying gmin =   2.9033E-07 Note: One successful gmin step
Trying gmin =   2.7116E-07 Note: One successful gmin step
Trying gmin =   2.4476E-07 Note: One successful gmin step
Trying gmin =   2.0989E-07 Note: One successful gmin step
Trying gmin =   1.6668E-07 Note: One successful gmin step
Trying gmin =   1.1795E-07 Note: One successful gmin step
Trying gmin =   7.0219E-08 Note: One successful gmin step
Trying gmin =   3.2253E-08 Note: One successful gmin step
Trying gmin =   1.0040E-08 Note: One successful gmin step
Trying gmin =   1.7439E-09 Note: One successful gmin step
Trying gmin =   1.7439E-10 Note: One successful gmin step
Trying gmin =   1.7439E-11 Note: One successful gmin step
Trying gmin =   1.7439E-12 Note: One successful gmin step
Trying gmin =   1.0000E-12 Note: One successful gmin step
Note: True gmin stepping completed

No. of Data Rows : 1
./data_fld/MCDACDATA1.csv: No such file or directory
Error: no such device or model name v0
Doing analysis at TEMP = 27.000000 and TNOM = 27.000000

Note: include: has no value, DC 0 assumed
Note: Starting dynamic gmin stepping
Trying gmin =   1.0000E-03 Note: One successful gmin step
Trying gmin =   1.0000E-04 Note: One successful gmin step
Trying gmin =   1.0000E-05 Note: One successful gmin step
Trying gmin =   1.0000E-06 Warning: Further gmin increment
Trying gmin =   5.6234E-06 Note: One successful gmin step
Trying gmin =   2.3714E-06 Warning: Further gmin increment
Trying gmin =   4.5316E-06 Note: One successful gmin step
Trying gmin =   3.2781E-06 Warning: Further gmin increment
Trying gmin =   4.1792E-06 Note: One successful gmin step
Trying gmin =   3.7013E-06 Note: One successful gmin step
Trying gmin =   3.0850E-06 Warning: Further gmin increment
Trying gmin =   3.5366E-06 Warning: Further gmin increment
Trying gmin =   3.6594E-06 Warning: Further gmin increment
Trying gmin =   3.6908E-06 Note: One successful gmin step
Trying gmin =   3.6751E-06 Warning: Further gmin increment
Trying gmin =   3.6869E-06 Warning: Further gmin increment
Trying gmin =   3.6898E-06 Note: One successful gmin step
Trying gmin =   3.6884E-06 Warning: Further gmin increment
Trying gmin =   3.6895E-06 Note: One successful gmin step
Trying gmin =   3.6889E-06 Note: One successful gmin step
Trying gmin =   3.6881E-06 Warning: Further gmin increment
Trying gmin =   3.6887E-06 Warning: Further gmin increment
Trying gmin =   3.6889E-06 Note: One successful gmin step
Trying gmin =   3.6888E-06 Warning: Last gmin step failed
Warning: Dynamic gmin stepping failed
Note: Starting true gmin stepping
Trying gmin =   1.0000E-03 Note: One successful gmin step
Trying gmin =   1.0000E-04 Note: One successful gmin step
Trying gmin =   1.0000E-05 Note: One successful gmin step
Trying gmin =   1.0000E-06 Note: One successful gmin step
Trying gmin =   1.0000E-07 Warning: Further gmin increment
Trying gmin =   5.6234E-07 Note: One successful gmin step
Trying gmin =   2.3714E-07 Warning: Further gmin increment
Trying gmin =   4.5316E-07 Note: One successful gmin step
Trying gmin =   3.2781E-07 Note: One successful gmin step
Trying gmin =   2.0169E-07 Warning: Further gmin increment
Trying gmin =   2.9033E-07 Warning: Further gmin increment
Trying gmin =   3.1801E-07 Note: One successful gmin step
Trying gmin =   3.0385E-07 Note: One successful gmin step
Trying gmin =   2.9033E-07 Note: One successful gmin step
Trying gmin =   2.7116E-07 Note: One successful gmin step
Trying gmin =   2.4476E-07 Note: One successful gmin step
Trying gmin =   2.0989E-07 Note: One successful gmin step
Trying gmin =   1.6668E-07 Note: One successful gmin step
Trying gmin =   1.1795E-07 Note: One successful gmin step
Trying gmin =   7.0219E-08 Note: One successful gmin step
Trying gmin =   3.2253E-08 Note: One successful gmin step
Trying gmin =   1.0040E-08 Note: One successful gmin step
Trying gmin =   1.7439E-09 Note: One successful gmin step
Trying gmin =   1.7439E-10 Note: One successful gmin step
Trying gmin =   1.7439E-11 Note: One successful gmin step
Trying gmin =   1.7439E-12 Note: One successful gmin step
Trying gmin =   1.0000E-12 Note: One successful gmin step
Note: True gmin stepping completed

No. of Data Rows : 1
./data_fld/MCDACDATA1.csv: No such file or directory
Error: no such device or model name v0
Doing analysis at TEMP = 27.000000 and TNOM = 27.000000

Note: include: has no value, DC 0 assumed
Note: Starting dynamic gmin stepping
Trying gmin =   1.0000E-03 Note: One successful gmin step
Trying gmin =   1.0000E-04 Note: One successful gmin step
Trying gmin =   1.0000E-05 Note: One successful gmin step
Trying gmin =   1.0000E-06 Warning: Further gmin increment
Trying gmin =   5.6234E-06 Note: One successful gmin step
Trying gmin =   2.3714E-06 Warning: Further gmin increment
Trying gmin =   4.5316E-06 Note: One successful gmin step
Trying gmin =   3.2781E-06 Warning: Further gmin increment
Trying gmin =   4.1792E-06 Note: One successful gmin step
Trying gmin =   3.7013E-06 Note: One successful gmin step
Trying gmin =   3.0850E-06 Warning: Further gmin increment
Trying gmin =   3.5366E-06 Note: One successful gmin step
Trying gmin =   3.3031E-06 Note: One successful gmin step
Trying gmin =   2.9814E-06 Note: One successful gmin step
Trying gmin =   2.5567E-06 Note: One successful gmin step
Trying gmin =   2.0304E-06 Note: One successful gmin step
Trying gmin =   1.4368E-06 Note: One successful gmin step
Trying gmin =   8.5536E-07 Note: One successful gmin step
Trying gmin =   3.9289E-07 Note: One successful gmin step
Trying gmin =   1.2231E-07 Warning: Further gmin increment
Trying gmin =   2.9347E-07 Note: One successful gmin step
Trying gmin =   1.8945E-07 Note: One successful gmin step
Trying gmin =   1.2231E-07 Note: One successful gmin step
Trying gmin =   6.3439E-08 Note: One successful gmin step
Trying gmin =   2.3699E-08 Note: One successful gmin step
Trying gmin =   5.4110E-09 Note: One successful gmin step
Trying gmin =   5.9035E-10 Note: One successful gmin step
Trying gmin =   5.9035E-11 Note: One successful gmin step
Trying gmin =   5.9035E-12 Note: One successful gmin step
Trying gmin =   1.0000E-12 Note: One successful gmin step
Note: Dynamic gmin stepping completed

No. of Data Rows : 1
./data_fld/MCDACDATA1.csv: No such file or directory
Error: no such device or model name v0
Doing analysis at TEMP = 27.000000 and TNOM = 27.000000

Note: include: has no value, DC 0 assumed
Note: Starting dynamic gmin stepping
Trying gmin =   1.0000E-03 Note: One successful gmin step
Trying gmin =   1.0000E-04 Note: One successful gmin step
Trying gmin =   1.0000E-05 Note: One successful gmin step
Trying gmin =   1.0000E-06 Warning: Further gmin increment
Trying gmin =   5.6234E-06 Note: One successful gmin step
Trying gmin =   2.3714E-06 Warning: Further gmin increment
Trying gmin =   4.5316E-06 Note: One successful gmin step
Trying gmin =   3.2781E-06 Warning: Further gmin increment
Trying gmin =   4.1792E-06 Note: One successful gmin step
Trying gmin =   3.7013E-06 Note: One successful gmin step
Trying gmin =   3.0850E-06 Warning: Further gmin increment
Trying gmin =   3.5366E-06 Note: One successful gmin step
Trying gmin =   3.3031E-06 Note: One successful gmin step
Trying gmin =   2.9814E-06 Note: One successful gmin step
Trying gmin =   2.5567E-06 Note: One successful gmin step
Trying gmin =   2.0304E-06 Note: One successful gmin step
Trying gmin =   1.4368E-06 Note: One successful gmin step
Trying gmin =   8.5536E-07 Note: One successful gmin step
Trying gmin =   3.9289E-07 Note: One successful gmin step
Trying gmin =   1.2231E-07 Warning: Further gmin increment
Trying gmin =   2.9347E-07 Note: One successful gmin step
Trying gmin =   1.8945E-07 Note: One successful gmin step
Trying gmin =   1.2231E-07 Note: One successful gmin step
Trying gmin =   6.3439E-08 Note: One successful gmin step
Trying gmin =   2.3699E-08 Note: One successful gmin step
Trying gmin =   5.4110E-09 Note: One successful gmin step
Trying gmin =   5.9035E-10 Note: One successful gmin step
Trying gmin =   5.9035E-11 Note: One successful gmin step
Trying gmin =   5.9035E-12 Note: One successful gmin step
Trying gmin =   1.0000E-12 Note: One successful gmin step
Note: Dynamic gmin stepping completed

No. of Data Rows : 1
./data_fld/MCDACDATA1.csv: No such file or directory
Error: no such device or model name v0
Doing analysis at TEMP = 27.000000 and TNOM = 27.000000

Note: include: has no value, DC 0 assumed
Note: Starting dynamic gmin stepping
Trying gmin =   1.0000E-03 Note: One successful gmin step
Trying gmin =   1.0000E-04 Note: One successful gmin step
Trying gmin =   1.0000E-05 Note: One successful gmin step
Trying gmin =   1.0000E-06 Warning: Further gmin increment
Trying gmin =   5.6234E-06 Note: One successful gmin step
Trying gmin =   2.3714E-06 Warning: Further gmin increment
Trying gmin =   4.5316E-06 Note: One successful gmin step
Trying gmin =   3.2781E-06 Warning: Further gmin increment
Trying gmin =   4.1792E-06 Note: One successful gmin step
Trying gmin =   3.7013E-06 Note: One successful gmin step
Trying gmin =   3.0850E-06 Warning: Further gmin increment
Trying gmin =   3.5366E-06 Note: One successful gmin step
Trying gmin =   3.3031E-06 Note: One successful gmin step
Trying gmin =   2.9814E-06 Note: One successful gmin step
Trying gmin =   2.5567E-06 Note: One successful gmin step
Trying gmin =   2.0304E-06 Note: One successful gmin step
Trying gmin =   1.4368E-06 Note: One successful gmin step
Trying gmin =   8.5536E-07 Note: One successful gmin step
Trying gmin =   3.9289E-07 Note: One successful gmin step
Trying gmin =   1.2231E-07 Warning: Further gmin increment
Trying gmin =   2.9347E-07 Note: One successful gmin step
Trying gmin =   1.8945E-07 Note: One successful gmin step
Trying gmin =   1.2231E-07 Note: One successful gmin step
Trying gmin =   6.3439E-08 Note: One successful gmin step
Trying gmin =   2.3699E-08 Note: One successful gmin step
Trying gmin =   5.4110E-09 Note: One successful gmin step
Trying gmin =   5.9035E-10 Note: One successful gmin step
Trying gmin =   5.9035E-11 Note: One successful gmin step
Trying gmin =   5.9035E-12 Note: One successful gmin step
Trying gmin =   1.0000E-12 Note: One successful gmin step
Note: Dynamic gmin stepping completed

No. of Data Rows : 1
./data_fld/MCDACDATA1.csv: No such file or directory
Error: no such device or model name v0
Doing analysis at TEMP = 27.000000 and TNOM = 27.000000

Note: include: has no value, DC 0 assumed
Note: Starting dynamic gmin stepping
[...]
Trying gmin =   1.2231E-07 Warning: Further gmin increment
Trying gmin =   2.9347E-07 Note: One successful gmin step
Trying gmin =   1.8945E-07 Note: One successful gmin step
Trying gmin =   1.2231E-07 Note: One successful gmin step
Trying gmin =   6.3439E-08 Note: One successful gmin step
Trying gmin =   2.3699E-08 Note: One successful gmin step
Trying gmin =   5.4110E-09 Note: One successful gmin step
Trying gmin =   5.9035E-10 Note: One successful gmin step
Trying gmin =   5.9035E-11 Note: One successful gmin step
Trying gmin =   5.9035E-12 Note: One successful gmin step
Trying gmin =   1.0000E-12 Note: One successful gmin step
Note: Dynamic gmin stepping completed

No. of Data Rows : 1
./data_fld/MCDACDATA10.csv: No such file or directory
Error: no such device or model name v0
Doing analysis at TEMP = 27.000000 and TNOM = 27.000000

Note: include: has no value, DC 0 assumed
Note: Starting dynamic gmin stepping
Trying gmin =   1.0000E-03 Note: One successful gmin step
Trying gmin =   1.0000E-04 Note: One successful gmin step
Trying gmin =   1.0000E-05 Note: One successful gmin step
Trying gmin =   1.0000E-06 Warning: Further gmin increment
Trying gmin =   5.6234E-06 Note: One successful gmin step
Trying gmin =   2.3714E-06 Warning: Further gmin increment
Trying gmin =   4.5316E-06 Note: One successful gmin step
Trying gmin =   3.2781E-06 Warning: Further gmin increment
Trying gmin =   4.1792E-06 Note: One successful gmin step
Trying gmin =   3.7013E-06 Note: One successful gmin step
Trying gmin =   3.0850E-06 Warning: Further gmin increment
Trying gmin =   3.5366E-06 Note: One successful gmin step
Trying gmin =   3.3031E-06 Note: One successful gmin step
Trying gmin =   2.9814E-06 Note: One successful gmin step
Trying gmin =   2.5567E-06 Note: One successful gmin step
Trying gmin =   2.0304E-06 Note: One successful gmin step
Trying gmin =   1.4368E-06 Note: One successful gmin step
Trying gmin =   8.5536E-07 Note: One successful gmin step
Trying gmin =   3.9289E-07 Note: One successful gmin step
Trying gmin =   1.2231E-07 Warning: Further gmin increment
Trying gmin =   2.9347E-07 Note: One successful gmin step
Trying gmin =   1.8945E-07 Note: One successful gmin step
Trying gmin =   1.2231E-07 Note: One successful gmin step
Trying gmin =   6.3439E-08 Note: One successful gmin step
Trying gmin =   2.3699E-08 Note: One successful gmin step
Trying gmin =   5.4110E-09 Note: One successful gmin step
Trying gmin =   5.9035E-10 Note: One successful gmin step
Trying gmin =   5.9035E-11 Note: One successful gmin step
Trying gmin =   5.9035E-12 Note: One successful gmin step
Trying gmin =   1.0000E-12 Note: One successful gmin step
Note: Dynamic gmin stepping completed

No. of Data Rows : 1
./data_fld/MCDACDATA10.csv: No such file or directory
Error: no such device or model name v0
Doing analysis at TEMP = 27.000000 and TNOM = 27.000000

Note: include: has no value, DC 0 assumed
Note: Starting dynamic gmin stepping
Trying gmin =   1.0000E-03 Note: One successful gmin step
Trying gmin =   1.0000E-04 Note: One successful gmin step
Trying gmin =   1.0000E-05 Note: One successful gmin step
Trying gmin =   1.0000E-06 Warning: Further gmin increment
Trying gmin =   5.6234E-06 Note: One successful gmin step
Trying gmin =   2.3714E-06 Warning: Further gmin increment
Trying gmin =   4.5316E-06 Note: One successful gmin step
Trying gmin =   3.2781E-06 Warning: Further gmin increment
Trying gmin =   4.1792E-06 Note: One successful gmin step
Trying gmin =   3.7013E-06 Note: One successful gmin step
Trying gmin =   3.0850E-06 Warning: Further gmin increment
Trying gmin =   3.5366E-06 Note: One successful gmin step
Trying gmin =   3.3031E-06 Note: One successful gmin step
Trying gmin =   2.9814E-06 Note: One successful gmin step
Trying gmin =   2.5567E-06 Note: One successful gmin step
Trying gmin =   2.0304E-06 Note: One successful gmin step
Trying gmin =   1.4368E-06 Note: One successful gmin step
Trying gmin =   8.5536E-07 Note: One successful gmin step
Trying gmin =   3.9289E-07 Note: One successful gmin step
Trying gmin =   1.2231E-07 Warning: Further gmin increment
Trying gmin =   2.9347E-07 Note: One successful gmin step
Trying gmin =   1.8945E-07 Note: One successful gmin step
Trying gmin =   1.2231E-07 Note: One successful gmin step
Trying gmin =   6.3439E-08 Note: One successful gmin step
Trying gmin =   2.3699E-08 Note: One successful gmin step
Trying gmin =   5.4110E-09 Note: One successful gmin step
Trying gmin =   5.9035E-10 Note: One successful gmin step
Trying gmin =   5.9035E-11 Note: One successful gmin step
Trying gmin =   5.9035E-12 Note: One successful gmin step
Trying gmin =   1.0000E-12 Note: One successful gmin step
Note: Dynamic gmin stepping completed

No. of Data Rows : 1
./data_fld/MCDACDATA10.csv: No such file or directory
Error: no such device or model name v0
Doing analysis at TEMP = 27.000000 and TNOM = 27.000000

Note: include: has no value, DC 0 assumed
Note: Starting dynamic gmin stepping
Trying gmin =   1.0000E-03 Note: One successful gmin step
Trying gmin =   1.0000E-04 Note: One successful gmin step
Trying gmin =   1.0000E-05 Note: One successful gmin step
Trying gmin =   1.0000E-06 Warning: Further gmin increment
Trying gmin =   5.6234E-06 Note: One successful gmin step
Trying gmin =   2.3714E-06 Warning: Further gmin increment
Trying gmin =   4.5316E-06 Note: One successful gmin step
Trying gmin =   3.2781E-06 Warning: Further gmin increment
Trying gmin =   4.1792E-06 Note: One successful gmin step
Trying gmin =   3.7013E-06 Note: One successful gmin step
Trying gmin =   3.0850E-06 Warning: Further gmin increment
Trying gmin =   3.5366E-06 Note: One successful gmin step
Trying gmin =   3.3031E-06 Note: One successful gmin step
Trying gmin =   2.9814E-06 Note: One successful gmin step
Trying gmin =   2.5567E-06 Note: One successful gmin step
Trying gmin =   2.0304E-06 Note: One successful gmin step
Trying gmin =   1.4368E-06 Note: One successful gmin step
Trying gmin =   8.5536E-07 Note: One successful gmin step
Trying gmin =   3.9289E-07 Note: One successful gmin step
Trying gmin =   1.2231E-07 Warning: Further gmin increment
Trying gmin =   2.9347E-07 Note: One successful gmin step
Trying gmin =   1.8945E-07 Note: One successful gmin step
Trying gmin =   1.2231E-07 Note: One successful gmin step
Trying gmin =   6.3439E-08 Note: One successful gmin step
Trying gmin =   2.3699E-08 Note: One successful gmin step
Trying gmin =   5.4110E-09 Note: One successful gmin step
Trying gmin =   5.9035E-10 Note: One successful gmin step
Trying gmin =   5.9035E-11 Note: One successful gmin step
Trying gmin =   5.9035E-12 Note: One successful gmin step
Trying gmin =   1.0000E-12 Note: One successful gmin step
Note: Dynamic gmin stepping completed

No. of Data Rows : 1
./data_fld/MCDACDATA10.csv: No such file or directory
Error: no such device or model name v0
Doing analysis at TEMP = 27.000000 and TNOM = 27.000000

Note: include: has no value, DC 0 assumed
Note: Starting dynamic gmin stepping
Trying gmin =   1.0000E-03 Note: One successful gmin step
Trying gmin =   1.0000E-04 Note: One successful gmin step
Trying gmin =   1.0000E-05 Note: One successful gmin step
Trying gmin =   1.0000E-06 Warning: Further gmin increment
Trying gmin =   5.6234E-06 Note: One successful gmin step
Trying gmin =   2.3714E-06 Warning: Further gmin increment
Trying gmin =   4.5316E-06 Note: One successful gmin step
Trying gmin =   3.2781E-06 Warning: Further gmin increment
Trying gmin =   4.1792E-06 Note: One successful gmin step
Trying gmin =   3.7013E-06 Note: One successful gmin step
Trying gmin =   3.0850E-06 Warning: Further gmin increment
Trying gmin =   3.5366E-06 Warning: Further gmin increment
Trying gmin =   3.6594E-06 Warning: Further gmin increment
Trying gmin =   3.6908E-06 Note: One successful gmin step
Trying gmin =   3.6751E-06 Warning: Further gmin increment
Trying gmin =   3.6869E-06 Warning: Further gmin increment
Trying gmin =   3.6898E-06 Note: One successful gmin step
Trying gmin =   3.6884E-06 Warning: Further gmin increment
Trying gmin =   3.6895E-06 Note: One successful gmin step
Trying gmin =   3.6889E-06 Note: One successful gmin step
Trying gmin =   3.6881E-06 Warning: Further gmin increment
Trying gmin =   3.6887E-06 Warning: Further gmin increment
Trying gmin =   3.6889E-06 Note: One successful gmin step
Trying gmin =   3.6888E-06 Warning: Last gmin step failed
Warning: Dynamic gmin stepping failed
Note: Starting true gmin stepping
Trying gmin =   1.0000E-03 Note: One successful gmin step
Trying gmin =   1.0000E-04 Note: One successful gmin step
Trying gmin =   1.0000E-05 Note: One successful gmin step
Trying gmin =   1.0000E-06 Note: One successful gmin step
Trying gmin =   1.0000E-07 Warning: Further gmin increment
Trying gmin =   5.6234E-07 Note: One successful gmin step
Trying gmin =   2.3714E-07 Warning: Further gmin increment
Trying gmin =   4.5316E-07 Note: One successful gmin step
Trying gmin =   3.2781E-07 Note: One successful gmin step
Trying gmin =   2.0169E-07 Warning: Further gmin increment
Trying gmin =   2.9033E-07 Warning: Further gmin increment
Trying gmin =   3.1801E-07 Note: One successful gmin step
Trying gmin =   3.0385E-07 Note: One successful gmin step
Trying gmin =   2.9033E-07 Note: One successful gmin step
Trying gmin =   2.7116E-07 Note: One successful gmin step
Trying gmin =   2.4476E-07 Note: One successful gmin step
Trying gmin =   2.0989E-07 Note: One successful gmin step
Trying gmin =   1.6668E-07 Note: One successful gmin step
Trying gmin =   1.1795E-07 Note: One successful gmin step
Trying gmin =   7.0219E-08 Note: One successful gmin step
Trying gmin =   3.2253E-08 Note: One successful gmin step
Trying gmin =   1.0040E-08 Note: One successful gmin step
Trying gmin =   1.7439E-09 Note: One successful gmin step
Trying gmin =   1.7439E-10 Note: One successful gmin step
Trying gmin =   1.7439E-11 Note: One successful gmin step
Trying gmin =   1.7439E-12 Note: One successful gmin step
Trying gmin =   1.0000E-12 Note: One successful gmin step
Note: True gmin stepping completed

No. of Data Rows : 1
./data_fld/MCDACDATA10.csv: No such file or directory
Error: no such device or model name v0
Doing analysis at TEMP = 27.000000 and TNOM = 27.000000

Note: include: has no value, DC 0 assumed
Note: Starting dynamic gmin stepping
Trying gmin =   1.0000E-03 Note: One successful gmin step
Trying gmin =   1.0000E-04 Note: One successful gmin step
Trying gmin =   1.0000E-05 Note: One successful gmin step
Trying gmin =   1.0000E-06 Warning: Further gmin increment
Trying gmin =   5.6234E-06 Note: One successful gmin step
Trying gmin =   2.3714E-06 Warning: Further gmin increment
Trying gmin =   4.5316E-06 Note: One successful gmin step
Trying gmin =   3.2781E-06 Warning: Further gmin increment
Trying gmin =   4.1792E-06 Note: One successful gmin step
Trying gmin =   3.7013E-06 Note: One successful gmin step
Trying gmin =   3.0850E-06 Warning: Further gmin increment
Trying gmin =   3.5366E-06 Warning: Further gmin increment
Trying gmin =   3.6594E-06 Warning: Further gmin increment
Trying gmin =   3.6908E-06 Note: One successful gmin step
Trying gmin =   3.6751E-06 Warning: Further gmin increment
Trying gmin =   3.6869E-06 Warning: Further gmin increment
Trying gmin =   3.6898E-06 Note: One successful gmin step
Trying gmin =   3.6884E-06 Warning: Further gmin increment
Trying gmin =   3.6895E-06 Note: One successful gmin step
Trying gmin =   3.6889E-06 Note: One successful gmin step
Trying gmin =   3.6881E-06 Warning: Further gmin increment
Trying gmin =   3.6887E-06 Warning: Further gmin increment
Trying gmin =   3.6889E-06 Note: One successful gmin step
Trying gmin =   3.6888E-06 Warning: Last gmin step failed
Warning: Dynamic gmin stepping failed
Note: Starting true gmin stepping
Trying gmin =   1.0000E-03 Note: One successful gmin step
Trying gmin =   1.0000E-04 Note: One successful gmin step
Trying gmin =   1.0000E-05 Note: One successful gmin step
Trying gmin =   1.0000E-06 Note: One successful gmin step
Trying gmin =   1.0000E-07 Warning: Further gmin increment
Trying gmin =   5.6234E-07 Note: One successful gmin step
Trying gmin =   2.3714E-07 Warning: Further gmin increment
Trying gmin =   4.5316E-07 Note: One successful gmin step
Trying gmin =   3.2781E-07 Note: One successful gmin step
Trying gmin =   2.0169E-07 Warning: Further gmin increment
Trying gmin =   2.9033E-07 Warning: Further gmin increment
Trying gmin =   3.1801E-07 Note: One successful gmin step
Trying gmin =   3.0385E-07 Note: One successful gmin step
Trying gmin =   2.9033E-07 Note: One successful gmin step
Trying gmin =   2.7116E-07 Note: One successful gmin step
Trying gmin =   2.4476E-07 Note: One successful gmin step
Trying gmin =   2.0989E-07 Note: One successful gmin step
Trying gmin =   1.6668E-07 Note: One successful gmin step
Trying gmin =   1.1795E-07 Note: One successful gmin step
Trying gmin =   7.0219E-08 Note: One successful gmin step
Trying gmin =   3.2253E-08 Note: One successful gmin step
Trying gmin =   1.0040E-08 Note: One successful gmin step
Trying gmin =   1.7439E-09 Note: One successful gmin step
Trying gmin =   1.7439E-10 Note: One successful gmin step
Trying gmin =   1.7439E-11 Note: One successful gmin step
Trying gmin =   1.7439E-12 Note: One successful gmin step
Trying gmin =   1.0000E-12 Note: One successful gmin step
Note: True gmin stepping completed

No. of Data Rows : 1
./data_fld/MCDACDATA10.csv: No such file or directory
Error: no such device or model name v0
Doing analysis at TEMP = 27.000000 and TNOM = 27.000000

Note: include: has no value, DC 0 assumed
Note: Starting dynamic gmin stepping
Trying gmin =   1.0000E-03 Note: One successful gmin step
Trying gmin =   1.0000E-04 Note: One successful gmin step
Trying gmin =   1.0000E-05 Note: One successful gmin step
Trying gmin =   1.0000E-06 Warning: Further gmin increment
Trying gmin =   5.6234E-06 Note: One successful gmin step
Trying gmin =   2.3714E-06 Warning: Further gmin increment
Trying gmin =   4.5316E-06 Note: One successful gmin step
Trying gmin =   3.2781E-06 Warning: Further gmin increment
Trying gmin =   4.1792E-06 Note: One successful gmin step
Trying gmin =   3.7013E-06 Note: One successful gmin step
Trying gmin =   3.0850E-06 Warning: Further gmin increment
Trying gmin =   3.5366E-06 Warning: Further gmin increment
Trying gmin =   3.6594E-06 Warning: Further gmin increment
Trying gmin =   3.6908E-06 Note: One successful gmin step
Trying gmin =   3.6751E-06 Warning: Further gmin increment
Trying gmin =   3.6869E-06 Warning: Further gmin increment
Trying gmin =   3.6898E-06 Note: One successful gmin step
Trying gmin =   3.6884E-06 Warning: Further gmin increment
Trying gmin =   3.6895E-06 Note: One successful gmin step
Trying gmin =   3.6889E-06 Note: One successful gmin step
Trying gmin =   3.6881E-06 Warning: Further gmin increment
Trying gmin =   3.6887E-06 Warning: Further gmin increment
Trying gmin =   3.6889E-06 Note: One successful gmin step
Trying gmin =   3.6888E-06 Warning: Last gmin step failed
Warning: Dynamic gmin stepping failed
Note: Starting true gmin stepping
Trying gmin =   1.0000E-03 Note: One successful gmin step
Trying gmin =   1.0000E-04 Note: One successful gmin step
Trying gmin =   1.0000E-05 Note: One successful gmin step
Trying gmin =   1.0000E-06 Note: One successful gmin step
Trying gmin =   1.0000E-07 Warning: Further gmin increment
Trying gmin =   5.6234E-07 Note: One successful gmin step
Trying gmin =   2.3714E-07 Warning: Further gmin increment
Trying gmin =   4.5316E-07 Note: One successful gmin step
Trying gmin =   3.2781E-07 Note: One successful gmin step
Trying gmin =   2.0169E-07 Warning: Further gmin increment
Trying gmin =   2.9033E-07 Note: One successful gmin step
Trying gmin =   2.7323E-07 Note: One successful gmin step
Trying gmin =   2.4944E-07 Note: One successful gmin step
Trying gmin =   2.1759E-07 Note: One successful gmin step
Trying gmin =   1.7728E-07 Note: One successful gmin step
Trying gmin =   1.3037E-07 Note: One successful gmin step
Trying gmin =   8.2214E-08 Note: One successful gmin step
Trying gmin =   4.1173E-08 Note: One successful gmin step
Trying gmin =   1.4592E-08 Note: One successful gmin step
Trying gmin =   3.0785E-09 Note: One successful gmin step
Trying gmin =   3.0785E-10 Note: One successful gmin step
Trying gmin =   3.0785E-11 Note: One successful gmin step
Trying gmin =   3.0785E-12 Note: One successful gmin step
Trying gmin =   1.0000E-12 Note: One successful gmin step
Note: True gmin stepping completed

No. of Data Rows : 1
./data_fld/MCDACDATA10.csv: No such file or directory
Error: no such device or model name v0
Doing analysis at TEMP = 27.000000 and TNOM = 27.000000

Note: include: has no value, DC 0 assumed
Note: Starting dynamic gmin stepping
Trying gmin =   1.0000E-03 Note: One successful gmin step
Trying gmin =   1.0000E-04 Note: One successful gmin step
Trying gmin =   1.0000E-05 Note: One successful gmin step
Trying gmin =   1.0000E-06 Warning: Further gmin increment
Trying gmin =   5.6234E-06 Note: One successful gmin step
Trying gmin =   2.3714E-06 Warning: Further gmin increment
Trying gmin =   4.5316E-06 Note: One successful gmin step
Trying gmin =   3.2781E-06 Warning: Further gmin increment
Trying gmin =   4.1792E-06 Note: One successful gmin step
Trying gmin =   3.7013E-06 Note: One successful gmin step
Trying gmin =   3.0850E-06 Warning: Further gmin increment
Trying gmin =   3.5366E-06 Warning: Further gmin increment
Trying gmin =   3.6594E-06 Warning: Further gmin increment
Trying gmin =   3.6908E-06 Note: One successful gmin step
Trying gmin =   3.6751E-06 Warning: Further gmin increment
Trying gmin =   3.6869E-06 Warning: Further gmin increment
Trying gmin =   3.6898E-06 Note: One successful gmin step
Trying gmin =   3.6884E-06 Warning: Further gmin increment
Trying gmin =   3.6895E-06 Note: One successful gmin step
Trying gmin =   3.6889E-06 Note: One successful gmin step
Trying gmin =   3.6881E-06 Warning: Further gmin increment
Trying gmin =   3.6887E-06 Warning: Further gmin increment
Trying gmin =   3.6889E-06 Note: One successful gmin step
Trying gmin =   3.6888E-06 Warning: Last gmin step failed
Warning: Dynamic gmin stepping failed
Note: Starting true gmin stepping
Trying gmin =   1.0000E-03 Note: One successful gmin step
Trying gmin =   1.0000E-04 Note: One successful gmin step
Trying gmin =   1.0000E-05 Note: One successful gmin step
Trying gmin =   1.0000E-06 Note: One successful gmin step
Trying gmin =   1.0000E-07 Warning: Further gmin increment
Trying gmin =   5.6234E-07 Note: One successful gmin step
Trying gmin =   2.3714E-07 Warning: Further gmin increment
Trying gmin =   4.5316E-07 Note: One successful gmin step
Trying gmin =   3.2781E-07 Note: One successful gmin step
Trying gmin =   2.0169E-07 Warning: Further gmin increment
Trying gmin =   2.9033E-07 Note: One successful gmin step
Trying gmin =   2.7323E-07 Note: One successful gmin step
Trying gmin =   2.4944E-07 Note: One successful gmin step
Trying gmin =   2.1759E-07 Note: One successful gmin step
Trying gmin =   1.7728E-07 Note: One successful gmin step
Trying gmin =   1.3037E-07 Note: One successful gmin step
Trying gmin =   8.2214E-08 Note: One successful gmin step
Trying gmin =   4.1173E-08 Note: One successful gmin step
Trying gmin =   1.4592E-08 Note: One successful gmin step
Trying gmin =   3.0785E-09 Note: One successful gmin step
Trying gmin =   3.0785E-10 Note: One successful gmin step
Trying gmin =   3.0785E-11 Note: One successful gmin step
Trying gmin =   3.0785E-12 Note: One successful gmin step
Trying gmin =   1.0000E-12 Note: One successful gmin step
Note: True gmin stepping completed

No. of Data Rows : 1
./data_fld/MCDACDATA10.csv: No such file or directory
Reset re-loads circuit ** sch_path: /home/lxbtlr/dtilo/schemas/mc_testbench.sch

Circuit: ** sch_path: /home/lxbtlr/dtilo/schemas/mc_testbench.sch

ngspice-40 done
